
  EPA STORM WATER MANAGEMENT MODEL - VERSION 5.2 (Build 5.2.4)
  ------------------------------------------------------------

  A site surface drainage model. 
  See Site_Drainage_Model.txt for more details. 
  
  ****************
  Analysis Options
  ****************
  Flow Units ............... CFS
  Process Models:
    Rainfall/Runoff ........ YES
    RDII ................... NO
    Snowmelt ............... NO
    Groundwater ............ NO
    Flow Routing ........... YES
    Ponding Allowed ........ NO
    Water Quality .......... YES
  Infiltration Method ...... HORTON
  Flow Routing Method ...... DYNWAVE
  Surcharge Method ......... EXTRAN
  Starting Date ............ 01/02/2000 00:00:00
  Ending Date .............. 01/02/2000 02:00:00
  Antecedent Dry Days ...... 5.0
  Report Time Step ......... 00:01:00
  Wet Time Step ............ 00:01:00
  Dry Time Step ............ 01:00:00
  Routing Time Step ........ 15.00 sec
  Variable Time Step ....... YES
  Maximum Trials ........... 8
  Number of Threads ........ 1
  Head Tolerance ........... 0.005000 ft
  
  
  **************************        Volume         Depth
  Runoff Quantity Continuity     acre-feet        inches
  **************************     ---------       -------
  Total Precipitation ......         0.000         0.000
  Evaporation Loss .........         0.000         0.000
  Infiltration Loss ........         0.000         0.000
  Surface Runoff ...........         0.000         0.000
  Final Storage ............         0.000         0.000
  Continuity Error (%) .....         0.000
  
  
  **************************           TSS
  Runoff Quality Continuity            lbs
  **************************    ----------
  Initial Buildup ..........      1039.376
  Surface Buildup ..........         3.821
  Wet Deposition ...........         0.000
  Sweeping Removal .........         0.000
  Infiltration Loss ........         0.000
  BMP Removal ..............         0.000
  Surface Runoff ...........         0.000
  Remaining Buildup ........      1043.197
  Continuity Error (%) .....         0.000
  
  
  **************************        Volume        Volume
  Flow Routing Continuity        acre-feet      10^6 gal
  **************************     ---------     ---------
  Dry Weather Inflow .......         0.000         0.000
  Wet Weather Inflow .......         0.000         0.000
  Groundwater Inflow .......         0.000         0.000
  RDII Inflow ..............         0.000         0.000
  External Inflow ..........         0.000         0.000
  External Outflow .........         0.000         0.000
  Flooding Loss ............         0.000         0.000
  Evaporation Loss .........         0.000         0.000
  Exfiltration Loss ........         0.000         0.000
  Initial Stored Volume ....         0.000         0.000
  Final Stored Volume ......         0.000         0.000
  Continuity Error (%) .....         0.000
  
  
  **************************           TSS
  Quality Routing Continuity           lbs
  **************************    ----------
  Dry Weather Inflow .......         0.000
  Wet Weather Inflow .......         0.000
  Groundwater Inflow .......         0.000
  RDII Inflow ..............         0.000
  External Inflow ..........         0.000
  External Outflow .........         0.000
  Flooding Loss ............         0.000
  Exfiltration Loss ........         0.000
  Mass Reacted .............         0.000
  Initial Stored Mass ......         0.000
  Final Stored Mass ........         0.000
  Continuity Error (%) .....         0.000
  
  
  ***************************
  Time-Step Critical Elements
  ***************************
  None
  
  
  ********************************
  Highest Flow Instability Indexes
  ********************************
  All links are stable.
  
  
  *********************************
  Most Frequent Nonconverging Nodes
  *********************************
  Convergence obtained at all time steps.
  
  
  *************************
  Routing Time Step Summary
  *************************
  Minimum Time Step           :    14.50 sec
  Average Time Step           :    14.97 sec
  Maximum Time Step           :    15.00 sec
  % of Time in Steady State   :     0.00
  Average Iterations per Step :     2.00
  % of Steps Not Converging   :     0.00
  Time Step Frequencies       :
     15.000 -  7.597 sec      :   100.00 %
      7.597 -  3.848 sec      :     0.00 %
      3.848 -  1.949 sec      :     0.00 %
      1.949 -  0.987 sec      :     0.00 %
      0.987 -  0.500 sec      :     0.00 %
  
  
  ***************************
  Subcatchment Runoff Summary
  ***************************
  
  ------------------------------------------------------------------------------------------------------------------------------
                            Total      Total      Total      Total     Imperv       Perv      Total       Total     Peak  Runoff
                           Precip      Runon       Evap      Infil     Runoff     Runoff     Runoff      Runoff   Runoff   Coeff
  Subcatchment                 in         in         in         in         in         in         in    10^6 gal      CFS
  ------------------------------------------------------------------------------------------------------------------------------
  S1                         0.00       0.00       0.00       0.00       0.00       0.00       0.00        0.00     0.00   0.000
  S2                         0.00       0.00       0.00       0.00       0.00       0.00       0.00        0.00     0.00   0.000
  S3                         0.00       0.00       0.00       0.00       0.00       0.00       0.00        0.00     0.00   0.000
  S4                         0.00       0.00       0.00       0.00       0.00       0.00       0.00        0.00     0.00   0.000
  S5                         0.00       0.00       0.00       0.00       0.00       0.00       0.00        0.00     0.00   0.000
  S6                         0.00       0.00       0.00       0.00       0.00       0.00       0.00        0.00     0.00   0.000
  S7                         0.00       0.00       0.00       0.00       0.00       0.00       0.00        0.00     0.00   0.000
  
  
  ****************************
  Subcatchment Washoff Summary
  ****************************
  
  ----------------------------------
                                 TSS
  Subcatchment                   lbs
  ----------------------------------
  S1                           0.000
  S2                           0.000
  S3                           0.000
  S4                           0.000
  S5                           0.000
  S6                           0.000
  S7                           0.000
  ----------------------------------
  System                       0.000
  
  
  ******************
  Node Depth Summary
  ******************
  
  ---------------------------------------------------------------------------------
                                 Average  Maximum  Maximum  Time of Max    Reported
                                   Depth    Depth      HGL   Occurrence   Max Depth
  Node                 Type         Feet     Feet     Feet  days hr:min        Feet
  ---------------------------------------------------------------------------------
  J1                   JUNCTION     0.00     0.00  4973.00     0  00:00        0.00
  J2                   JUNCTION     0.00     0.00  4969.00     0  00:00        0.00
  J3                   JUNCTION     0.00     0.00  4973.00     0  00:00        0.00
  J4                   JUNCTION     0.00     0.00  4971.00     0  00:00        0.00
  J5                   JUNCTION     0.00     0.00  4969.80     0  00:00        0.00
  J6                   JUNCTION     0.00     0.00  4969.00     0  00:00        0.00
  J7                   JUNCTION     0.00     0.00  4971.50     0  00:00        0.00
  J8                   JUNCTION     0.00     0.00  4966.50     0  00:00        0.00
  J9                   JUNCTION     0.00     0.00  4964.80     0  00:00        0.00
  J10                  JUNCTION     0.00     0.00  4963.80     0  00:00        0.00
  J11                  JUNCTION     0.00     0.00  4963.00     0  00:00        0.00
  O1                   OUTFALL      0.00     0.00  4962.00     0  00:00        0.00
  
  
  *******************
  Node Inflow Summary
  *******************
  
  -------------------------------------------------------------------------------------------------
                                  Maximum  Maximum                  Lateral       Total        Flow
                                  Lateral    Total  Time of Max      Inflow      Inflow     Balance
                                   Inflow   Inflow   Occurrence      Volume      Volume       Error
  Node                 Type           CFS      CFS  days hr:min    10^6 gal    10^6 gal     Percent
  -------------------------------------------------------------------------------------------------
  J1                   JUNCTION         0        0     0  00:00           0           0       0.000 gal
  J2                   JUNCTION         0        0     0  00:00           0           0       0.000 gal
  J3                   JUNCTION         0        0     0  00:00           0           0       0.000 gal
  J4                   JUNCTION         0        0     0  00:00           0           0       0.000 gal
  J5                   JUNCTION         0        0     0  00:00           0           0       0.000 gal
  J6                   JUNCTION         0        0     0  00:00           0           0       0.000 gal
  J7                   JUNCTION         0        0     0  00:00           0           0       0.000 gal
  J8                   JUNCTION         0        0     0  00:00           0           0       0.000 gal
  J9                   JUNCTION         0        0     0  00:00           0           0       0.000 gal
  J10                  JUNCTION         0        0     0  00:00           0           0       0.000 gal
  J11                  JUNCTION         0        0     0  00:00           0           0       0.000 gal
  O1                   OUTFALL          0        0     0  00:00           0           0       0.000 gal
  
  
  **********************
  Node Surcharge Summary
  **********************
  
  No nodes were surcharged.
  
  
  *********************
  Node Flooding Summary
  *********************
  
  No nodes were flooded.
  
  
  ***********************
  Outfall Loading Summary
  ***********************
  
  -------------------------------------------------------------------------
                         Flow       Avg       Max       Total         Total
                         Freq      Flow      Flow      Volume           TSS
  Outfall Node           Pcnt       CFS       CFS    10^6 gal           lbs
  -------------------------------------------------------------------------
  O1                     0.00         0         0       0.000         0.000
  -------------------------------------------------------------------------
  System                 0.00         0         0       0.000         0.000
  
  
  ********************
  Link Flow Summary
  ********************
  
  -----------------------------------------------------------------------------
                                 Maximum  Time of Max   Maximum    Max/    Max/
                                  |Flow|   Occurrence   |Veloc|    Full    Full
  Link                 Type          CFS  days hr:min    ft/sec    Flow   Depth
  -----------------------------------------------------------------------------
  C1                   CONDUIT         0     0  00:00      0.00    0.00    0.00
  C2                   CONDUIT         0     0  00:00      0.00    0.00    0.00
  C3                   CONDUIT         0     0  00:00      0.00    0.00    0.00
  C4                   CONDUIT         0     0  00:00      0.00    0.00    0.00
  C5                   CONDUIT         0     0  00:00      0.00    0.00    0.00
  C6                   CONDUIT         0     0  00:00      0.00    0.00    0.00
  C7                   CONDUIT         0     0  00:00      0.00    0.00    0.00
  C8                   CONDUIT         0     0  00:00      0.00    0.00    0.00
  C9                   CONDUIT         0     0  00:00      0.00    0.00    0.00
  C10                  CONDUIT         0     0  00:00      0.00    0.00    0.00
  C11                  CONDUIT         0     0  00:00      0.00    0.00    0.00
  
  
  ***************************
  Flow Classification Summary
  ***************************
  
  -------------------------------------------------------------------------------------
                      Adjusted    ---------- Fraction of Time in Flow Class ---------- 
                       /Actual         Up    Down  Sub   Sup   Up    Down  Norm  Inlet 
  Conduit               Length    Dry  Dry   Dry   Crit  Crit  Crit  Crit  Ltd   Ctrl  
  -------------------------------------------------------------------------------------
  C1                      1.00   1.00  0.00  0.00  0.00  0.00  0.00  0.00  0.00  0.00
  C2                      1.00   1.00  0.00  0.00  0.00  0.00  0.00  0.00  0.00  0.00
  C3                      1.00   1.00  0.00  0.00  0.00  0.00  0.00  0.00  0.00  0.00
  C4                      1.00   1.00  0.00  0.00  0.00  0.00  0.00  0.00  0.00  0.00
  C5                      1.00   1.00  0.00  0.00  0.00  0.00  0.00  0.00  0.00  0.00
  C6                      1.00   1.00  0.00  0.00  0.00  0.00  0.00  0.00  0.00  0.00
  C7                      1.00   1.00  0.00  0.00  0.00  0.00  0.00  0.00  0.00  0.00
  C8                      1.00   1.00  0.00  0.00  0.00  0.00  0.00  0.00  0.00  0.00
  C9                      1.00   1.00  0.00  0.00  0.00  0.00  0.00  0.00  0.00  0.00
  C10                     1.00   1.00  0.00  0.00  0.00  0.00  0.00  0.00  0.00  0.00
  C11                     1.00   1.00  0.00  0.00  0.00  0.00  0.00  0.00  0.00  0.00
  
  
  *************************
  Conduit Surcharge Summary
  *************************
  
  No conduits were surcharged.
  
  
  ***************************
  Link Pollutant Load Summary
  ***************************
  
  ----------------------------------
                                 TSS
  Link                           lbs
  ----------------------------------
  C1                           0.000
  C2                           0.000
  C3                           0.000
  C4                           0.000
  C5                           0.000
  C6                           0.000
  C7                           0.000
  C8                           0.000
  C9                           0.000
  C10                          0.000
  C11                          0.000
  
  
  ********************************
  Subcatchment Time Series Results
  ********************************
  
  <<< Subcatchment S1 >>>
  -------------------------------------------------------------
  Date        Time        Precip.    Losses    Runoff       TSS
                            in/hr     in/hr       CFS      MG/L
  -------------------------------------------------------------
   01/02/2000 00:01:00      0.000     0.000    0.0000     0.000
   01/02/2000 00:02:00      0.000     0.000    0.0000     0.000
   01/02/2000 00:03:00      0.000     0.000    0.0000     0.000
   01/02/2000 00:04:00      0.000     0.000    0.0000     0.000
   01/02/2000 00:05:00      0.000     0.000    0.0000     0.000
   01/02/2000 00:06:00      0.000     0.000    0.0000     0.000
   01/02/2000 00:07:00      0.000     0.000    0.0000     0.000
   01/02/2000 00:08:00      0.000     0.000    0.0000     0.000
   01/02/2000 00:09:00      0.000     0.000    0.0000     0.000
   01/02/2000 00:10:00      0.000     0.000    0.0000     0.000
   01/02/2000 00:11:00      0.000     0.000    0.0000     0.000
   01/02/2000 00:12:00      0.000     0.000    0.0000     0.000
   01/02/2000 00:13:00      0.000     0.000    0.0000     0.000
   01/02/2000 00:14:00      0.000     0.000    0.0000     0.000
   01/02/2000 00:15:00      0.000     0.000    0.0000     0.000
   01/02/2000 00:16:00      0.000     0.000    0.0000     0.000
   01/02/2000 00:17:00      0.000     0.000    0.0000     0.000
   01/02/2000 00:18:00      0.000     0.000    0.0000     0.000
   01/02/2000 00:19:00      0.000     0.000    0.0000     0.000
   01/02/2000 00:20:00      0.000     0.000    0.0000     0.000
   01/02/2000 00:21:00      0.000     0.000    0.0000     0.000
   01/02/2000 00:22:00      0.000     0.000    0.0000     0.000
   01/02/2000 00:23:00      0.000     0.000    0.0000     0.000
   01/02/2000 00:24:00      0.000     0.000    0.0000     0.000
   01/02/2000 00:25:00      0.000     0.000    0.0000     0.000
   01/02/2000 00:26:00      0.000     0.000    0.0000     0.000
   01/02/2000 00:27:00      0.000     0.000    0.0000     0.000
   01/02/2000 00:28:00      0.000     0.000    0.0000     0.000
   01/02/2000 00:29:00      0.000     0.000    0.0000     0.000
   01/02/2000 00:30:00      0.000     0.000    0.0000     0.000
   01/02/2000 00:31:00      0.000     0.000    0.0000     0.000
   01/02/2000 00:32:00      0.000     0.000    0.0000     0.000
   01/02/2000 00:33:00      0.000     0.000    0.0000     0.000
   01/02/2000 00:34:00      0.000     0.000    0.0000     0.000
   01/02/2000 00:35:00      0.000     0.000    0.0000     0.000
   01/02/2000 00:36:00      0.000     0.000    0.0000     0.000
   01/02/2000 00:37:00      0.000     0.000    0.0000     0.000
   01/02/2000 00:38:00      0.000     0.000    0.0000     0.000
   01/02/2000 00:39:00      0.000     0.000    0.0000     0.000
   01/02/2000 00:40:00      0.000     0.000    0.0000     0.000
   01/02/2000 00:41:00      0.000     0.000    0.0000     0.000
   01/02/2000 00:42:00      0.000     0.000    0.0000     0.000
   01/02/2000 00:43:00      0.000     0.000    0.0000     0.000
   01/02/2000 00:44:00      0.000     0.000    0.0000     0.000
   01/02/2000 00:45:00      0.000     0.000    0.0000     0.000
   01/02/2000 00:46:00      0.000     0.000    0.0000     0.000
   01/02/2000 00:47:00      0.000     0.000    0.0000     0.000
   01/02/2000 00:48:00      0.000     0.000    0.0000     0.000
   01/02/2000 00:49:00      0.000     0.000    0.0000     0.000
   01/02/2000 00:50:00      0.000     0.000    0.0000     0.000
   01/02/2000 00:51:00      0.000     0.000    0.0000     0.000
   01/02/2000 00:52:00      0.000     0.000    0.0000     0.000
   01/02/2000 00:53:00      0.000     0.000    0.0000     0.000
   01/02/2000 00:54:00      0.000     0.000    0.0000     0.000
   01/02/2000 00:55:00      0.000     0.000    0.0000     0.000
   01/02/2000 00:56:00      0.000     0.000    0.0000     0.000
   01/02/2000 00:57:00      0.000     0.000    0.0000     0.000
   01/02/2000 00:58:00      0.000     0.000    0.0000     0.000
   01/02/2000 00:59:00      0.000     0.000    0.0000     0.000
   01/02/2000 01:00:00      0.000     0.000    0.0000     0.000
   01/02/2000 01:01:00      0.000     0.000    0.0000     0.000
   01/02/2000 01:02:00      0.000     0.000    0.0000     0.000
   01/02/2000 01:03:00      0.000     0.000    0.0000     0.000
   01/02/2000 01:04:00      0.000     0.000    0.0000     0.000
   01/02/2000 01:05:00      0.000     0.000    0.0000     0.000
   01/02/2000 01:06:00      0.000     0.000    0.0000     0.000
   01/02/2000 01:07:00      0.000     0.000    0.0000     0.000
   01/02/2000 01:08:00      0.000     0.000    0.0000     0.000
   01/02/2000 01:09:00      0.000     0.000    0.0000     0.000
   01/02/2000 01:10:00      0.000     0.000    0.0000     0.000
   01/02/2000 01:11:00      0.000     0.000    0.0000     0.000
   01/02/2000 01:12:00      0.000     0.000    0.0000     0.000
   01/02/2000 01:13:00      0.000     0.000    0.0000     0.000
   01/02/2000 01:14:00      0.000     0.000    0.0000     0.000
   01/02/2000 01:15:00      0.000     0.000    0.0000     0.000
   01/02/2000 01:16:00      0.000     0.000    0.0000     0.000
   01/02/2000 01:17:00      0.000     0.000    0.0000     0.000
   01/02/2000 01:18:00      0.000     0.000    0.0000     0.000
   01/02/2000 01:19:00      0.000     0.000    0.0000     0.000
   01/02/2000 01:20:00      0.000     0.000    0.0000     0.000
   01/02/2000 01:21:00      0.000     0.000    0.0000     0.000
   01/02/2000 01:22:00      0.000     0.000    0.0000     0.000
   01/02/2000 01:23:00      0.000     0.000    0.0000     0.000
   01/02/2000 01:24:00      0.000     0.000    0.0000     0.000
   01/02/2000 01:25:00      0.000     0.000    0.0000     0.000
   01/02/2000 01:26:00      0.000     0.000    0.0000     0.000
   01/02/2000 01:27:00      0.000     0.000    0.0000     0.000
   01/02/2000 01:28:00      0.000     0.000    0.0000     0.000
   01/02/2000 01:29:00      0.000     0.000    0.0000     0.000
   01/02/2000 01:30:00      0.000     0.000    0.0000     0.000
   01/02/2000 01:31:00      0.000     0.000    0.0000     0.000
   01/02/2000 01:32:00      0.000     0.000    0.0000     0.000
   01/02/2000 01:33:00      0.000     0.000    0.0000     0.000
   01/02/2000 01:34:00      0.000     0.000    0.0000     0.000
   01/02/2000 01:35:00      0.000     0.000    0.0000     0.000
   01/02/2000 01:36:00      0.000     0.000    0.0000     0.000
   01/02/2000 01:37:00      0.000     0.000    0.0000     0.000
   01/02/2000 01:38:00      0.000     0.000    0.0000     0.000
   01/02/2000 01:39:00      0.000     0.000    0.0000     0.000
   01/02/2000 01:40:00      0.000     0.000    0.0000     0.000
   01/02/2000 01:41:00      0.000     0.000    0.0000     0.000
   01/02/2000 01:42:00      0.000     0.000    0.0000     0.000
   01/02/2000 01:43:00      0.000     0.000    0.0000     0.000
   01/02/2000 01:44:00      0.000     0.000    0.0000     0.000
   01/02/2000 01:45:00      0.000     0.000    0.0000     0.000
   01/02/2000 01:46:00      0.000     0.000    0.0000     0.000
   01/02/2000 01:47:00      0.000     0.000    0.0000     0.000
   01/02/2000 01:48:00      0.000     0.000    0.0000     0.000
   01/02/2000 01:49:00      0.000     0.000    0.0000     0.000
   01/02/2000 01:50:00      0.000     0.000    0.0000     0.000
   01/02/2000 01:51:00      0.000     0.000    0.0000     0.000
   01/02/2000 01:52:00      0.000     0.000    0.0000     0.000
   01/02/2000 01:53:00      0.000     0.000    0.0000     0.000
   01/02/2000 01:54:00      0.000     0.000    0.0000     0.000
   01/02/2000 01:55:00      0.000     0.000    0.0000     0.000
   01/02/2000 01:56:00      0.000     0.000    0.0000     0.000
   01/02/2000 01:57:00      0.000     0.000    0.0000     0.000
   01/02/2000 01:58:00      0.000     0.000    0.0000     0.000
   01/02/2000 01:59:00      0.000     0.000    0.0000     0.000
   01/02/2000 02:00:00      0.000     0.000    0.0000     0.000
  
  
  <<< Subcatchment S2 >>>
  -------------------------------------------------------------
  Date        Time        Precip.    Losses    Runoff       TSS
                            in/hr     in/hr       CFS      MG/L
  -------------------------------------------------------------
   01/02/2000 00:01:00      0.000     0.000    0.0000     0.000
   01/02/2000 00:02:00      0.000     0.000    0.0000     0.000
   01/02/2000 00:03:00      0.000     0.000    0.0000     0.000
   01/02/2000 00:04:00      0.000     0.000    0.0000     0.000
   01/02/2000 00:05:00      0.000     0.000    0.0000     0.000
   01/02/2000 00:06:00      0.000     0.000    0.0000     0.000
   01/02/2000 00:07:00      0.000     0.000    0.0000     0.000
   01/02/2000 00:08:00      0.000     0.000    0.0000     0.000
   01/02/2000 00:09:00      0.000     0.000    0.0000     0.000
   01/02/2000 00:10:00      0.000     0.000    0.0000     0.000
   01/02/2000 00:11:00      0.000     0.000    0.0000     0.000
   01/02/2000 00:12:00      0.000     0.000    0.0000     0.000
   01/02/2000 00:13:00      0.000     0.000    0.0000     0.000
   01/02/2000 00:14:00      0.000     0.000    0.0000     0.000
   01/02/2000 00:15:00      0.000     0.000    0.0000     0.000
   01/02/2000 00:16:00      0.000     0.000    0.0000     0.000
   01/02/2000 00:17:00      0.000     0.000    0.0000     0.000
   01/02/2000 00:18:00      0.000     0.000    0.0000     0.000
   01/02/2000 00:19:00      0.000     0.000    0.0000     0.000
   01/02/2000 00:20:00      0.000     0.000    0.0000     0.000
   01/02/2000 00:21:00      0.000     0.000    0.0000     0.000
   01/02/2000 00:22:00      0.000     0.000    0.0000     0.000
   01/02/2000 00:23:00      0.000     0.000    0.0000     0.000
   01/02/2000 00:24:00      0.000     0.000    0.0000     0.000
   01/02/2000 00:25:00      0.000     0.000    0.0000     0.000
   01/02/2000 00:26:00      0.000     0.000    0.0000     0.000
   01/02/2000 00:27:00      0.000     0.000    0.0000     0.000
   01/02/2000 00:28:00      0.000     0.000    0.0000     0.000
   01/02/2000 00:29:00      0.000     0.000    0.0000     0.000
   01/02/2000 00:30:00      0.000     0.000    0.0000     0.000
   01/02/2000 00:31:00      0.000     0.000    0.0000     0.000
   01/02/2000 00:32:00      0.000     0.000    0.0000     0.000
   01/02/2000 00:33:00      0.000     0.000    0.0000     0.000
   01/02/2000 00:34:00      0.000     0.000    0.0000     0.000
   01/02/2000 00:35:00      0.000     0.000    0.0000     0.000
   01/02/2000 00:36:00      0.000     0.000    0.0000     0.000
   01/02/2000 00:37:00      0.000     0.000    0.0000     0.000
   01/02/2000 00:38:00      0.000     0.000    0.0000     0.000
   01/02/2000 00:39:00      0.000     0.000    0.0000     0.000
   01/02/2000 00:40:00      0.000     0.000    0.0000     0.000
   01/02/2000 00:41:00      0.000     0.000    0.0000     0.000
   01/02/2000 00:42:00      0.000     0.000    0.0000     0.000
   01/02/2000 00:43:00      0.000     0.000    0.0000     0.000
   01/02/2000 00:44:00      0.000     0.000    0.0000     0.000
   01/02/2000 00:45:00      0.000     0.000    0.0000     0.000
   01/02/2000 00:46:00      0.000     0.000    0.0000     0.000
   01/02/2000 00:47:00      0.000     0.000    0.0000     0.000
   01/02/2000 00:48:00      0.000     0.000    0.0000     0.000
   01/02/2000 00:49:00      0.000     0.000    0.0000     0.000
   01/02/2000 00:50:00      0.000     0.000    0.0000     0.000
   01/02/2000 00:51:00      0.000     0.000    0.0000     0.000
   01/02/2000 00:52:00      0.000     0.000    0.0000     0.000
   01/02/2000 00:53:00      0.000     0.000    0.0000     0.000
   01/02/2000 00:54:00      0.000     0.000    0.0000     0.000
   01/02/2000 00:55:00      0.000     0.000    0.0000     0.000
   01/02/2000 00:56:00      0.000     0.000    0.0000     0.000
   01/02/2000 00:57:00      0.000     0.000    0.0000     0.000
   01/02/2000 00:58:00      0.000     0.000    0.0000     0.000
   01/02/2000 00:59:00      0.000     0.000    0.0000     0.000
   01/02/2000 01:00:00      0.000     0.000    0.0000     0.000
   01/02/2000 01:01:00      0.000     0.000    0.0000     0.000
   01/02/2000 01:02:00      0.000     0.000    0.0000     0.000
   01/02/2000 01:03:00      0.000     0.000    0.0000     0.000
   01/02/2000 01:04:00      0.000     0.000    0.0000     0.000
   01/02/2000 01:05:00      0.000     0.000    0.0000     0.000
   01/02/2000 01:06:00      0.000     0.000    0.0000     0.000
   01/02/2000 01:07:00      0.000     0.000    0.0000     0.000
   01/02/2000 01:08:00      0.000     0.000    0.0000     0.000
   01/02/2000 01:09:00      0.000     0.000    0.0000     0.000
   01/02/2000 01:10:00      0.000     0.000    0.0000     0.000
   01/02/2000 01:11:00      0.000     0.000    0.0000     0.000
   01/02/2000 01:12:00      0.000     0.000    0.0000     0.000
   01/02/2000 01:13:00      0.000     0.000    0.0000     0.000
   01/02/2000 01:14:00      0.000     0.000    0.0000     0.000
   01/02/2000 01:15:00      0.000     0.000    0.0000     0.000
   01/02/2000 01:16:00      0.000     0.000    0.0000     0.000
   01/02/2000 01:17:00      0.000     0.000    0.0000     0.000
   01/02/2000 01:18:00      0.000     0.000    0.0000     0.000
   01/02/2000 01:19:00      0.000     0.000    0.0000     0.000
   01/02/2000 01:20:00      0.000     0.000    0.0000     0.000
   01/02/2000 01:21:00      0.000     0.000    0.0000     0.000
   01/02/2000 01:22:00      0.000     0.000    0.0000     0.000
   01/02/2000 01:23:00      0.000     0.000    0.0000     0.000
   01/02/2000 01:24:00      0.000     0.000    0.0000     0.000
   01/02/2000 01:25:00      0.000     0.000    0.0000     0.000
   01/02/2000 01:26:00      0.000     0.000    0.0000     0.000
   01/02/2000 01:27:00      0.000     0.000    0.0000     0.000
   01/02/2000 01:28:00      0.000     0.000    0.0000     0.000
   01/02/2000 01:29:00      0.000     0.000    0.0000     0.000
   01/02/2000 01:30:00      0.000     0.000    0.0000     0.000
   01/02/2000 01:31:00      0.000     0.000    0.0000     0.000
   01/02/2000 01:32:00      0.000     0.000    0.0000     0.000
   01/02/2000 01:33:00      0.000     0.000    0.0000     0.000
   01/02/2000 01:34:00      0.000     0.000    0.0000     0.000
   01/02/2000 01:35:00      0.000     0.000    0.0000     0.000
   01/02/2000 01:36:00      0.000     0.000    0.0000     0.000
   01/02/2000 01:37:00      0.000     0.000    0.0000     0.000
   01/02/2000 01:38:00      0.000     0.000    0.0000     0.000
   01/02/2000 01:39:00      0.000     0.000    0.0000     0.000
   01/02/2000 01:40:00      0.000     0.000    0.0000     0.000
   01/02/2000 01:41:00      0.000     0.000    0.0000     0.000
   01/02/2000 01:42:00      0.000     0.000    0.0000     0.000
   01/02/2000 01:43:00      0.000     0.000    0.0000     0.000
   01/02/2000 01:44:00      0.000     0.000    0.0000     0.000
   01/02/2000 01:45:00      0.000     0.000    0.0000     0.000
   01/02/2000 01:46:00      0.000     0.000    0.0000     0.000
   01/02/2000 01:47:00      0.000     0.000    0.0000     0.000
   01/02/2000 01:48:00      0.000     0.000    0.0000     0.000
   01/02/2000 01:49:00      0.000     0.000    0.0000     0.000
   01/02/2000 01:50:00      0.000     0.000    0.0000     0.000
   01/02/2000 01:51:00      0.000     0.000    0.0000     0.000
   01/02/2000 01:52:00      0.000     0.000    0.0000     0.000
   01/02/2000 01:53:00      0.000     0.000    0.0000     0.000
   01/02/2000 01:54:00      0.000     0.000    0.0000     0.000
   01/02/2000 01:55:00      0.000     0.000    0.0000     0.000
   01/02/2000 01:56:00      0.000     0.000    0.0000     0.000
   01/02/2000 01:57:00      0.000     0.000    0.0000     0.000
   01/02/2000 01:58:00      0.000     0.000    0.0000     0.000
   01/02/2000 01:59:00      0.000     0.000    0.0000     0.000
   01/02/2000 02:00:00      0.000     0.000    0.0000     0.000
  
  
  <<< Subcatchment S3 >>>
  -------------------------------------------------------------
  Date        Time        Precip.    Losses    Runoff       TSS
                            in/hr     in/hr       CFS      MG/L
  -------------------------------------------------------------
   01/02/2000 00:01:00      0.000     0.000    0.0000     0.000
   01/02/2000 00:02:00      0.000     0.000    0.0000     0.000
   01/02/2000 00:03:00      0.000     0.000    0.0000     0.000
   01/02/2000 00:04:00      0.000     0.000    0.0000     0.000
   01/02/2000 00:05:00      0.000     0.000    0.0000     0.000
   01/02/2000 00:06:00      0.000     0.000    0.0000     0.000
   01/02/2000 00:07:00      0.000     0.000    0.0000     0.000
   01/02/2000 00:08:00      0.000     0.000    0.0000     0.000
   01/02/2000 00:09:00      0.000     0.000    0.0000     0.000
   01/02/2000 00:10:00      0.000     0.000    0.0000     0.000
   01/02/2000 00:11:00      0.000     0.000    0.0000     0.000
   01/02/2000 00:12:00      0.000     0.000    0.0000     0.000
   01/02/2000 00:13:00      0.000     0.000    0.0000     0.000
   01/02/2000 00:14:00      0.000     0.000    0.0000     0.000
   01/02/2000 00:15:00      0.000     0.000    0.0000     0.000
   01/02/2000 00:16:00      0.000     0.000    0.0000     0.000
   01/02/2000 00:17:00      0.000     0.000    0.0000     0.000
   01/02/2000 00:18:00      0.000     0.000    0.0000     0.000
   01/02/2000 00:19:00      0.000     0.000    0.0000     0.000
   01/02/2000 00:20:00      0.000     0.000    0.0000     0.000
   01/02/2000 00:21:00      0.000     0.000    0.0000     0.000
   01/02/2000 00:22:00      0.000     0.000    0.0000     0.000
   01/02/2000 00:23:00      0.000     0.000    0.0000     0.000
   01/02/2000 00:24:00      0.000     0.000    0.0000     0.000
   01/02/2000 00:25:00      0.000     0.000    0.0000     0.000
   01/02/2000 00:26:00      0.000     0.000    0.0000     0.000
   01/02/2000 00:27:00      0.000     0.000    0.0000     0.000
   01/02/2000 00:28:00      0.000     0.000    0.0000     0.000
   01/02/2000 00:29:00      0.000     0.000    0.0000     0.000
   01/02/2000 00:30:00      0.000     0.000    0.0000     0.000
   01/02/2000 00:31:00      0.000     0.000    0.0000     0.000
   01/02/2000 00:32:00      0.000     0.000    0.0000     0.000
   01/02/2000 00:33:00      0.000     0.000    0.0000     0.000
   01/02/2000 00:34:00      0.000     0.000    0.0000     0.000
   01/02/2000 00:35:00      0.000     0.000    0.0000     0.000
   01/02/2000 00:36:00      0.000     0.000    0.0000     0.000
   01/02/2000 00:37:00      0.000     0.000    0.0000     0.000
   01/02/2000 00:38:00      0.000     0.000    0.0000     0.000
   01/02/2000 00:39:00      0.000     0.000    0.0000     0.000
   01/02/2000 00:40:00      0.000     0.000    0.0000     0.000
   01/02/2000 00:41:00      0.000     0.000    0.0000     0.000
   01/02/2000 00:42:00      0.000     0.000    0.0000     0.000
   01/02/2000 00:43:00      0.000     0.000    0.0000     0.000
   01/02/2000 00:44:00      0.000     0.000    0.0000     0.000
   01/02/2000 00:45:00      0.000     0.000    0.0000     0.000
   01/02/2000 00:46:00      0.000     0.000    0.0000     0.000
   01/02/2000 00:47:00      0.000     0.000    0.0000     0.000
   01/02/2000 00:48:00      0.000     0.000    0.0000     0.000
   01/02/2000 00:49:00      0.000     0.000    0.0000     0.000
   01/02/2000 00:50:00      0.000     0.000    0.0000     0.000
   01/02/2000 00:51:00      0.000     0.000    0.0000     0.000
   01/02/2000 00:52:00      0.000     0.000    0.0000     0.000
   01/02/2000 00:53:00      0.000     0.000    0.0000     0.000
   01/02/2000 00:54:00      0.000     0.000    0.0000     0.000
   01/02/2000 00:55:00      0.000     0.000    0.0000     0.000
   01/02/2000 00:56:00      0.000     0.000    0.0000     0.000
   01/02/2000 00:57:00      0.000     0.000    0.0000     0.000
   01/02/2000 00:58:00      0.000     0.000    0.0000     0.000
   01/02/2000 00:59:00      0.000     0.000    0.0000     0.000
   01/02/2000 01:00:00      0.000     0.000    0.0000     0.000
   01/02/2000 01:01:00      0.000     0.000    0.0000     0.000
   01/02/2000 01:02:00      0.000     0.000    0.0000     0.000
   01/02/2000 01:03:00      0.000     0.000    0.0000     0.000
   01/02/2000 01:04:00      0.000     0.000    0.0000     0.000
   01/02/2000 01:05:00      0.000     0.000    0.0000     0.000
   01/02/2000 01:06:00      0.000     0.000    0.0000     0.000
   01/02/2000 01:07:00      0.000     0.000    0.0000     0.000
   01/02/2000 01:08:00      0.000     0.000    0.0000     0.000
   01/02/2000 01:09:00      0.000     0.000    0.0000     0.000
   01/02/2000 01:10:00      0.000     0.000    0.0000     0.000
   01/02/2000 01:11:00      0.000     0.000    0.0000     0.000
   01/02/2000 01:12:00      0.000     0.000    0.0000     0.000
   01/02/2000 01:13:00      0.000     0.000    0.0000     0.000
   01/02/2000 01:14:00      0.000     0.000    0.0000     0.000
   01/02/2000 01:15:00      0.000     0.000    0.0000     0.000
   01/02/2000 01:16:00      0.000     0.000    0.0000     0.000
   01/02/2000 01:17:00      0.000     0.000    0.0000     0.000
   01/02/2000 01:18:00      0.000     0.000    0.0000     0.000
   01/02/2000 01:19:00      0.000     0.000    0.0000     0.000
   01/02/2000 01:20:00      0.000     0.000    0.0000     0.000
   01/02/2000 01:21:00      0.000     0.000    0.0000     0.000
   01/02/2000 01:22:00      0.000     0.000    0.0000     0.000
   01/02/2000 01:23:00      0.000     0.000    0.0000     0.000
   01/02/2000 01:24:00      0.000     0.000    0.0000     0.000
   01/02/2000 01:25:00      0.000     0.000    0.0000     0.000
   01/02/2000 01:26:00      0.000     0.000    0.0000     0.000
   01/02/2000 01:27:00      0.000     0.000    0.0000     0.000
   01/02/2000 01:28:00      0.000     0.000    0.0000     0.000
   01/02/2000 01:29:00      0.000     0.000    0.0000     0.000
   01/02/2000 01:30:00      0.000     0.000    0.0000     0.000
   01/02/2000 01:31:00      0.000     0.000    0.0000     0.000
   01/02/2000 01:32:00      0.000     0.000    0.0000     0.000
   01/02/2000 01:33:00      0.000     0.000    0.0000     0.000
   01/02/2000 01:34:00      0.000     0.000    0.0000     0.000
   01/02/2000 01:35:00      0.000     0.000    0.0000     0.000
   01/02/2000 01:36:00      0.000     0.000    0.0000     0.000
   01/02/2000 01:37:00      0.000     0.000    0.0000     0.000
   01/02/2000 01:38:00      0.000     0.000    0.0000     0.000
   01/02/2000 01:39:00      0.000     0.000    0.0000     0.000
   01/02/2000 01:40:00      0.000     0.000    0.0000     0.000
   01/02/2000 01:41:00      0.000     0.000    0.0000     0.000
   01/02/2000 01:42:00      0.000     0.000    0.0000     0.000
   01/02/2000 01:43:00      0.000     0.000    0.0000     0.000
   01/02/2000 01:44:00      0.000     0.000    0.0000     0.000
   01/02/2000 01:45:00      0.000     0.000    0.0000     0.000
   01/02/2000 01:46:00      0.000     0.000    0.0000     0.000
   01/02/2000 01:47:00      0.000     0.000    0.0000     0.000
   01/02/2000 01:48:00      0.000     0.000    0.0000     0.000
   01/02/2000 01:49:00      0.000     0.000    0.0000     0.000
   01/02/2000 01:50:00      0.000     0.000    0.0000     0.000
   01/02/2000 01:51:00      0.000     0.000    0.0000     0.000
   01/02/2000 01:52:00      0.000     0.000    0.0000     0.000
   01/02/2000 01:53:00      0.000     0.000    0.0000     0.000
   01/02/2000 01:54:00      0.000     0.000    0.0000     0.000
   01/02/2000 01:55:00      0.000     0.000    0.0000     0.000
   01/02/2000 01:56:00      0.000     0.000    0.0000     0.000
   01/02/2000 01:57:00      0.000     0.000    0.0000     0.000
   01/02/2000 01:58:00      0.000     0.000    0.0000     0.000
   01/02/2000 01:59:00      0.000     0.000    0.0000     0.000
   01/02/2000 02:00:00      0.000     0.000    0.0000     0.000
  
  
  <<< Subcatchment S4 >>>
  -------------------------------------------------------------
  Date        Time        Precip.    Losses    Runoff       TSS
                            in/hr     in/hr       CFS      MG/L
  -------------------------------------------------------------
   01/02/2000 00:01:00      0.000     0.000    0.0000     0.000
   01/02/2000 00:02:00      0.000     0.000    0.0000     0.000
   01/02/2000 00:03:00      0.000     0.000    0.0000     0.000
   01/02/2000 00:04:00      0.000     0.000    0.0000     0.000
   01/02/2000 00:05:00      0.000     0.000    0.0000     0.000
   01/02/2000 00:06:00      0.000     0.000    0.0000     0.000
   01/02/2000 00:07:00      0.000     0.000    0.0000     0.000
   01/02/2000 00:08:00      0.000     0.000    0.0000     0.000
   01/02/2000 00:09:00      0.000     0.000    0.0000     0.000
   01/02/2000 00:10:00      0.000     0.000    0.0000     0.000
   01/02/2000 00:11:00      0.000     0.000    0.0000     0.000
   01/02/2000 00:12:00      0.000     0.000    0.0000     0.000
   01/02/2000 00:13:00      0.000     0.000    0.0000     0.000
   01/02/2000 00:14:00      0.000     0.000    0.0000     0.000
   01/02/2000 00:15:00      0.000     0.000    0.0000     0.000
   01/02/2000 00:16:00      0.000     0.000    0.0000     0.000
   01/02/2000 00:17:00      0.000     0.000    0.0000     0.000
   01/02/2000 00:18:00      0.000     0.000    0.0000     0.000
   01/02/2000 00:19:00      0.000     0.000    0.0000     0.000
   01/02/2000 00:20:00      0.000     0.000    0.0000     0.000
   01/02/2000 00:21:00      0.000     0.000    0.0000     0.000
   01/02/2000 00:22:00      0.000     0.000    0.0000     0.000
   01/02/2000 00:23:00      0.000     0.000    0.0000     0.000
   01/02/2000 00:24:00      0.000     0.000    0.0000     0.000
   01/02/2000 00:25:00      0.000     0.000    0.0000     0.000
   01/02/2000 00:26:00      0.000     0.000    0.0000     0.000
   01/02/2000 00:27:00      0.000     0.000    0.0000     0.000
   01/02/2000 00:28:00      0.000     0.000    0.0000     0.000
   01/02/2000 00:29:00      0.000     0.000    0.0000     0.000
   01/02/2000 00:30:00      0.000     0.000    0.0000     0.000
   01/02/2000 00:31:00      0.000     0.000    0.0000     0.000
   01/02/2000 00:32:00      0.000     0.000    0.0000     0.000
   01/02/2000 00:33:00      0.000     0.000    0.0000     0.000
   01/02/2000 00:34:00      0.000     0.000    0.0000     0.000
   01/02/2000 00:35:00      0.000     0.000    0.0000     0.000
   01/02/2000 00:36:00      0.000     0.000    0.0000     0.000
   01/02/2000 00:37:00      0.000     0.000    0.0000     0.000
   01/02/2000 00:38:00      0.000     0.000    0.0000     0.000
   01/02/2000 00:39:00      0.000     0.000    0.0000     0.000
   01/02/2000 00:40:00      0.000     0.000    0.0000     0.000
   01/02/2000 00:41:00      0.000     0.000    0.0000     0.000
   01/02/2000 00:42:00      0.000     0.000    0.0000     0.000
   01/02/2000 00:43:00      0.000     0.000    0.0000     0.000
   01/02/2000 00:44:00      0.000     0.000    0.0000     0.000
   01/02/2000 00:45:00      0.000     0.000    0.0000     0.000
   01/02/2000 00:46:00      0.000     0.000    0.0000     0.000
   01/02/2000 00:47:00      0.000     0.000    0.0000     0.000
   01/02/2000 00:48:00      0.000     0.000    0.0000     0.000
   01/02/2000 00:49:00      0.000     0.000    0.0000     0.000
   01/02/2000 00:50:00      0.000     0.000    0.0000     0.000
   01/02/2000 00:51:00      0.000     0.000    0.0000     0.000
   01/02/2000 00:52:00      0.000     0.000    0.0000     0.000
   01/02/2000 00:53:00      0.000     0.000    0.0000     0.000
   01/02/2000 00:54:00      0.000     0.000    0.0000     0.000
   01/02/2000 00:55:00      0.000     0.000    0.0000     0.000
   01/02/2000 00:56:00      0.000     0.000    0.0000     0.000
   01/02/2000 00:57:00      0.000     0.000    0.0000     0.000
   01/02/2000 00:58:00      0.000     0.000    0.0000     0.000
   01/02/2000 00:59:00      0.000     0.000    0.0000     0.000
   01/02/2000 01:00:00      0.000     0.000    0.0000     0.000
   01/02/2000 01:01:00      0.000     0.000    0.0000     0.000
   01/02/2000 01:02:00      0.000     0.000    0.0000     0.000
   01/02/2000 01:03:00      0.000     0.000    0.0000     0.000
   01/02/2000 01:04:00      0.000     0.000    0.0000     0.000
   01/02/2000 01:05:00      0.000     0.000    0.0000     0.000
   01/02/2000 01:06:00      0.000     0.000    0.0000     0.000
   01/02/2000 01:07:00      0.000     0.000    0.0000     0.000
   01/02/2000 01:08:00      0.000     0.000    0.0000     0.000
   01/02/2000 01:09:00      0.000     0.000    0.0000     0.000
   01/02/2000 01:10:00      0.000     0.000    0.0000     0.000
   01/02/2000 01:11:00      0.000     0.000    0.0000     0.000
   01/02/2000 01:12:00      0.000     0.000    0.0000     0.000
   01/02/2000 01:13:00      0.000     0.000    0.0000     0.000
   01/02/2000 01:14:00      0.000     0.000    0.0000     0.000
   01/02/2000 01:15:00      0.000     0.000    0.0000     0.000
   01/02/2000 01:16:00      0.000     0.000    0.0000     0.000
   01/02/2000 01:17:00      0.000     0.000    0.0000     0.000
   01/02/2000 01:18:00      0.000     0.000    0.0000     0.000
   01/02/2000 01:19:00      0.000     0.000    0.0000     0.000
   01/02/2000 01:20:00      0.000     0.000    0.0000     0.000
   01/02/2000 01:21:00      0.000     0.000    0.0000     0.000
   01/02/2000 01:22:00      0.000     0.000    0.0000     0.000
   01/02/2000 01:23:00      0.000     0.000    0.0000     0.000
   01/02/2000 01:24:00      0.000     0.000    0.0000     0.000
   01/02/2000 01:25:00      0.000     0.000    0.0000     0.000
   01/02/2000 01:26:00      0.000     0.000    0.0000     0.000
   01/02/2000 01:27:00      0.000     0.000    0.0000     0.000
   01/02/2000 01:28:00      0.000     0.000    0.0000     0.000
   01/02/2000 01:29:00      0.000     0.000    0.0000     0.000
   01/02/2000 01:30:00      0.000     0.000    0.0000     0.000
   01/02/2000 01:31:00      0.000     0.000    0.0000     0.000
   01/02/2000 01:32:00      0.000     0.000    0.0000     0.000
   01/02/2000 01:33:00      0.000     0.000    0.0000     0.000
   01/02/2000 01:34:00      0.000     0.000    0.0000     0.000
   01/02/2000 01:35:00      0.000     0.000    0.0000     0.000
   01/02/2000 01:36:00      0.000     0.000    0.0000     0.000
   01/02/2000 01:37:00      0.000     0.000    0.0000     0.000
   01/02/2000 01:38:00      0.000     0.000    0.0000     0.000
   01/02/2000 01:39:00      0.000     0.000    0.0000     0.000
   01/02/2000 01:40:00      0.000     0.000    0.0000     0.000
   01/02/2000 01:41:00      0.000     0.000    0.0000     0.000
   01/02/2000 01:42:00      0.000     0.000    0.0000     0.000
   01/02/2000 01:43:00      0.000     0.000    0.0000     0.000
   01/02/2000 01:44:00      0.000     0.000    0.0000     0.000
   01/02/2000 01:45:00      0.000     0.000    0.0000     0.000
   01/02/2000 01:46:00      0.000     0.000    0.0000     0.000
   01/02/2000 01:47:00      0.000     0.000    0.0000     0.000
   01/02/2000 01:48:00      0.000     0.000    0.0000     0.000
   01/02/2000 01:49:00      0.000     0.000    0.0000     0.000
   01/02/2000 01:50:00      0.000     0.000    0.0000     0.000
   01/02/2000 01:51:00      0.000     0.000    0.0000     0.000
   01/02/2000 01:52:00      0.000     0.000    0.0000     0.000
   01/02/2000 01:53:00      0.000     0.000    0.0000     0.000
   01/02/2000 01:54:00      0.000     0.000    0.0000     0.000
   01/02/2000 01:55:00      0.000     0.000    0.0000     0.000
   01/02/2000 01:56:00      0.000     0.000    0.0000     0.000
   01/02/2000 01:57:00      0.000     0.000    0.0000     0.000
   01/02/2000 01:58:00      0.000     0.000    0.0000     0.000
   01/02/2000 01:59:00      0.000     0.000    0.0000     0.000
   01/02/2000 02:00:00      0.000     0.000    0.0000     0.000
  
  
  <<< Subcatchment S5 >>>
  -------------------------------------------------------------
  Date        Time        Precip.    Losses    Runoff       TSS
                            in/hr     in/hr       CFS      MG/L
  -------------------------------------------------------------
   01/02/2000 00:01:00      0.000     0.000    0.0000     0.000
   01/02/2000 00:02:00      0.000     0.000    0.0000     0.000
   01/02/2000 00:03:00      0.000     0.000    0.0000     0.000
   01/02/2000 00:04:00      0.000     0.000    0.0000     0.000
   01/02/2000 00:05:00      0.000     0.000    0.0000     0.000
   01/02/2000 00:06:00      0.000     0.000    0.0000     0.000
   01/02/2000 00:07:00      0.000     0.000    0.0000     0.000
   01/02/2000 00:08:00      0.000     0.000    0.0000     0.000
   01/02/2000 00:09:00      0.000     0.000    0.0000     0.000
   01/02/2000 00:10:00      0.000     0.000    0.0000     0.000
   01/02/2000 00:11:00      0.000     0.000    0.0000     0.000
   01/02/2000 00:12:00      0.000     0.000    0.0000     0.000
   01/02/2000 00:13:00      0.000     0.000    0.0000     0.000
   01/02/2000 00:14:00      0.000     0.000    0.0000     0.000
   01/02/2000 00:15:00      0.000     0.000    0.0000     0.000
   01/02/2000 00:16:00      0.000     0.000    0.0000     0.000
   01/02/2000 00:17:00      0.000     0.000    0.0000     0.000
   01/02/2000 00:18:00      0.000     0.000    0.0000     0.000
   01/02/2000 00:19:00      0.000     0.000    0.0000     0.000
   01/02/2000 00:20:00      0.000     0.000    0.0000     0.000
   01/02/2000 00:21:00      0.000     0.000    0.0000     0.000
   01/02/2000 00:22:00      0.000     0.000    0.0000     0.000
   01/02/2000 00:23:00      0.000     0.000    0.0000     0.000
   01/02/2000 00:24:00      0.000     0.000    0.0000     0.000
   01/02/2000 00:25:00      0.000     0.000    0.0000     0.000
   01/02/2000 00:26:00      0.000     0.000    0.0000     0.000
   01/02/2000 00:27:00      0.000     0.000    0.0000     0.000
   01/02/2000 00:28:00      0.000     0.000    0.0000     0.000
   01/02/2000 00:29:00      0.000     0.000    0.0000     0.000
   01/02/2000 00:30:00      0.000     0.000    0.0000     0.000
   01/02/2000 00:31:00      0.000     0.000    0.0000     0.000
   01/02/2000 00:32:00      0.000     0.000    0.0000     0.000
   01/02/2000 00:33:00      0.000     0.000    0.0000     0.000
   01/02/2000 00:34:00      0.000     0.000    0.0000     0.000
   01/02/2000 00:35:00      0.000     0.000    0.0000     0.000
   01/02/2000 00:36:00      0.000     0.000    0.0000     0.000
   01/02/2000 00:37:00      0.000     0.000    0.0000     0.000
   01/02/2000 00:38:00      0.000     0.000    0.0000     0.000
   01/02/2000 00:39:00      0.000     0.000    0.0000     0.000
   01/02/2000 00:40:00      0.000     0.000    0.0000     0.000
   01/02/2000 00:41:00      0.000     0.000    0.0000     0.000
   01/02/2000 00:42:00      0.000     0.000    0.0000     0.000
   01/02/2000 00:43:00      0.000     0.000    0.0000     0.000
   01/02/2000 00:44:00      0.000     0.000    0.0000     0.000
   01/02/2000 00:45:00      0.000     0.000    0.0000     0.000
   01/02/2000 00:46:00      0.000     0.000    0.0000     0.000
   01/02/2000 00:47:00      0.000     0.000    0.0000     0.000
   01/02/2000 00:48:00      0.000     0.000    0.0000     0.000
   01/02/2000 00:49:00      0.000     0.000    0.0000     0.000
   01/02/2000 00:50:00      0.000     0.000    0.0000     0.000
   01/02/2000 00:51:00      0.000     0.000    0.0000     0.000
   01/02/2000 00:52:00      0.000     0.000    0.0000     0.000
   01/02/2000 00:53:00      0.000     0.000    0.0000     0.000
   01/02/2000 00:54:00      0.000     0.000    0.0000     0.000
   01/02/2000 00:55:00      0.000     0.000    0.0000     0.000
   01/02/2000 00:56:00      0.000     0.000    0.0000     0.000
   01/02/2000 00:57:00      0.000     0.000    0.0000     0.000
   01/02/2000 00:58:00      0.000     0.000    0.0000     0.000
   01/02/2000 00:59:00      0.000     0.000    0.0000     0.000
   01/02/2000 01:00:00      0.000     0.000    0.0000     0.000
   01/02/2000 01:01:00      0.000     0.000    0.0000     0.000
   01/02/2000 01:02:00      0.000     0.000    0.0000     0.000
   01/02/2000 01:03:00      0.000     0.000    0.0000     0.000
   01/02/2000 01:04:00      0.000     0.000    0.0000     0.000
   01/02/2000 01:05:00      0.000     0.000    0.0000     0.000
   01/02/2000 01:06:00      0.000     0.000    0.0000     0.000
   01/02/2000 01:07:00      0.000     0.000    0.0000     0.000
   01/02/2000 01:08:00      0.000     0.000    0.0000     0.000
   01/02/2000 01:09:00      0.000     0.000    0.0000     0.000
   01/02/2000 01:10:00      0.000     0.000    0.0000     0.000
   01/02/2000 01:11:00      0.000     0.000    0.0000     0.000
   01/02/2000 01:12:00      0.000     0.000    0.0000     0.000
   01/02/2000 01:13:00      0.000     0.000    0.0000     0.000
   01/02/2000 01:14:00      0.000     0.000    0.0000     0.000
   01/02/2000 01:15:00      0.000     0.000    0.0000     0.000
   01/02/2000 01:16:00      0.000     0.000    0.0000     0.000
   01/02/2000 01:17:00      0.000     0.000    0.0000     0.000
   01/02/2000 01:18:00      0.000     0.000    0.0000     0.000
   01/02/2000 01:19:00      0.000     0.000    0.0000     0.000
   01/02/2000 01:20:00      0.000     0.000    0.0000     0.000
   01/02/2000 01:21:00      0.000     0.000    0.0000     0.000
   01/02/2000 01:22:00      0.000     0.000    0.0000     0.000
   01/02/2000 01:23:00      0.000     0.000    0.0000     0.000
   01/02/2000 01:24:00      0.000     0.000    0.0000     0.000
   01/02/2000 01:25:00      0.000     0.000    0.0000     0.000
   01/02/2000 01:26:00      0.000     0.000    0.0000     0.000
   01/02/2000 01:27:00      0.000     0.000    0.0000     0.000
   01/02/2000 01:28:00      0.000     0.000    0.0000     0.000
   01/02/2000 01:29:00      0.000     0.000    0.0000     0.000
   01/02/2000 01:30:00      0.000     0.000    0.0000     0.000
   01/02/2000 01:31:00      0.000     0.000    0.0000     0.000
   01/02/2000 01:32:00      0.000     0.000    0.0000     0.000
   01/02/2000 01:33:00      0.000     0.000    0.0000     0.000
   01/02/2000 01:34:00      0.000     0.000    0.0000     0.000
   01/02/2000 01:35:00      0.000     0.000    0.0000     0.000
   01/02/2000 01:36:00      0.000     0.000    0.0000     0.000
   01/02/2000 01:37:00      0.000     0.000    0.0000     0.000
   01/02/2000 01:38:00      0.000     0.000    0.0000     0.000
   01/02/2000 01:39:00      0.000     0.000    0.0000     0.000
   01/02/2000 01:40:00      0.000     0.000    0.0000     0.000
   01/02/2000 01:41:00      0.000     0.000    0.0000     0.000
   01/02/2000 01:42:00      0.000     0.000    0.0000     0.000
   01/02/2000 01:43:00      0.000     0.000    0.0000     0.000
   01/02/2000 01:44:00      0.000     0.000    0.0000     0.000
   01/02/2000 01:45:00      0.000     0.000    0.0000     0.000
   01/02/2000 01:46:00      0.000     0.000    0.0000     0.000
   01/02/2000 01:47:00      0.000     0.000    0.0000     0.000
   01/02/2000 01:48:00      0.000     0.000    0.0000     0.000
   01/02/2000 01:49:00      0.000     0.000    0.0000     0.000
   01/02/2000 01:50:00      0.000     0.000    0.0000     0.000
   01/02/2000 01:51:00      0.000     0.000    0.0000     0.000
   01/02/2000 01:52:00      0.000     0.000    0.0000     0.000
   01/02/2000 01:53:00      0.000     0.000    0.0000     0.000
   01/02/2000 01:54:00      0.000     0.000    0.0000     0.000
   01/02/2000 01:55:00      0.000     0.000    0.0000     0.000
   01/02/2000 01:56:00      0.000     0.000    0.0000     0.000
   01/02/2000 01:57:00      0.000     0.000    0.0000     0.000
   01/02/2000 01:58:00      0.000     0.000    0.0000     0.000
   01/02/2000 01:59:00      0.000     0.000    0.0000     0.000
   01/02/2000 02:00:00      0.000     0.000    0.0000     0.000
  
  
  <<< Subcatchment S6 >>>
  -------------------------------------------------------------
  Date        Time        Precip.    Losses    Runoff       TSS
                            in/hr     in/hr       CFS      MG/L
  -------------------------------------------------------------
   01/02/2000 00:01:00      0.000     0.000    0.0000     0.000
   01/02/2000 00:02:00      0.000     0.000    0.0000     0.000
   01/02/2000 00:03:00      0.000     0.000    0.0000     0.000
   01/02/2000 00:04:00      0.000     0.000    0.0000     0.000
   01/02/2000 00:05:00      0.000     0.000    0.0000     0.000
   01/02/2000 00:06:00      0.000     0.000    0.0000     0.000
   01/02/2000 00:07:00      0.000     0.000    0.0000     0.000
   01/02/2000 00:08:00      0.000     0.000    0.0000     0.000
   01/02/2000 00:09:00      0.000     0.000    0.0000     0.000
   01/02/2000 00:10:00      0.000     0.000    0.0000     0.000
   01/02/2000 00:11:00      0.000     0.000    0.0000     0.000
   01/02/2000 00:12:00      0.000     0.000    0.0000     0.000
   01/02/2000 00:13:00      0.000     0.000    0.0000     0.000
   01/02/2000 00:14:00      0.000     0.000    0.0000     0.000
   01/02/2000 00:15:00      0.000     0.000    0.0000     0.000
   01/02/2000 00:16:00      0.000     0.000    0.0000     0.000
   01/02/2000 00:17:00      0.000     0.000    0.0000     0.000
   01/02/2000 00:18:00      0.000     0.000    0.0000     0.000
   01/02/2000 00:19:00      0.000     0.000    0.0000     0.000
   01/02/2000 00:20:00      0.000     0.000    0.0000     0.000
   01/02/2000 00:21:00      0.000     0.000    0.0000     0.000
   01/02/2000 00:22:00      0.000     0.000    0.0000     0.000
   01/02/2000 00:23:00      0.000     0.000    0.0000     0.000
   01/02/2000 00:24:00      0.000     0.000    0.0000     0.000
   01/02/2000 00:25:00      0.000     0.000    0.0000     0.000
   01/02/2000 00:26:00      0.000     0.000    0.0000     0.000
   01/02/2000 00:27:00      0.000     0.000    0.0000     0.000
   01/02/2000 00:28:00      0.000     0.000    0.0000     0.000
   01/02/2000 00:29:00      0.000     0.000    0.0000     0.000
   01/02/2000 00:30:00      0.000     0.000    0.0000     0.000
   01/02/2000 00:31:00      0.000     0.000    0.0000     0.000
   01/02/2000 00:32:00      0.000     0.000    0.0000     0.000
   01/02/2000 00:33:00      0.000     0.000    0.0000     0.000
   01/02/2000 00:34:00      0.000     0.000    0.0000     0.000
   01/02/2000 00:35:00      0.000     0.000    0.0000     0.000
   01/02/2000 00:36:00      0.000     0.000    0.0000     0.000
   01/02/2000 00:37:00      0.000     0.000    0.0000     0.000
   01/02/2000 00:38:00      0.000     0.000    0.0000     0.000
   01/02/2000 00:39:00      0.000     0.000    0.0000     0.000
   01/02/2000 00:40:00      0.000     0.000    0.0000     0.000
   01/02/2000 00:41:00      0.000     0.000    0.0000     0.000
   01/02/2000 00:42:00      0.000     0.000    0.0000     0.000
   01/02/2000 00:43:00      0.000     0.000    0.0000     0.000
   01/02/2000 00:44:00      0.000     0.000    0.0000     0.000
   01/02/2000 00:45:00      0.000     0.000    0.0000     0.000
   01/02/2000 00:46:00      0.000     0.000    0.0000     0.000
   01/02/2000 00:47:00      0.000     0.000    0.0000     0.000
   01/02/2000 00:48:00      0.000     0.000    0.0000     0.000
   01/02/2000 00:49:00      0.000     0.000    0.0000     0.000
   01/02/2000 00:50:00      0.000     0.000    0.0000     0.000
   01/02/2000 00:51:00      0.000     0.000    0.0000     0.000
   01/02/2000 00:52:00      0.000     0.000    0.0000     0.000
   01/02/2000 00:53:00      0.000     0.000    0.0000     0.000
   01/02/2000 00:54:00      0.000     0.000    0.0000     0.000
   01/02/2000 00:55:00      0.000     0.000    0.0000     0.000
   01/02/2000 00:56:00      0.000     0.000    0.0000     0.000
   01/02/2000 00:57:00      0.000     0.000    0.0000     0.000
   01/02/2000 00:58:00      0.000     0.000    0.0000     0.000
   01/02/2000 00:59:00      0.000     0.000    0.0000     0.000
   01/02/2000 01:00:00      0.000     0.000    0.0000     0.000
   01/02/2000 01:01:00      0.000     0.000    0.0000     0.000
   01/02/2000 01:02:00      0.000     0.000    0.0000     0.000
   01/02/2000 01:03:00      0.000     0.000    0.0000     0.000
   01/02/2000 01:04:00      0.000     0.000    0.0000     0.000
   01/02/2000 01:05:00      0.000     0.000    0.0000     0.000
   01/02/2000 01:06:00      0.000     0.000    0.0000     0.000
   01/02/2000 01:07:00      0.000     0.000    0.0000     0.000
   01/02/2000 01:08:00      0.000     0.000    0.0000     0.000
   01/02/2000 01:09:00      0.000     0.000    0.0000     0.000
   01/02/2000 01:10:00      0.000     0.000    0.0000     0.000
   01/02/2000 01:11:00      0.000     0.000    0.0000     0.000
   01/02/2000 01:12:00      0.000     0.000    0.0000     0.000
   01/02/2000 01:13:00      0.000     0.000    0.0000     0.000
   01/02/2000 01:14:00      0.000     0.000    0.0000     0.000
   01/02/2000 01:15:00      0.000     0.000    0.0000     0.000
   01/02/2000 01:16:00      0.000     0.000    0.0000     0.000
   01/02/2000 01:17:00      0.000     0.000    0.0000     0.000
   01/02/2000 01:18:00      0.000     0.000    0.0000     0.000
   01/02/2000 01:19:00      0.000     0.000    0.0000     0.000
   01/02/2000 01:20:00      0.000     0.000    0.0000     0.000
   01/02/2000 01:21:00      0.000     0.000    0.0000     0.000
   01/02/2000 01:22:00      0.000     0.000    0.0000     0.000
   01/02/2000 01:23:00      0.000     0.000    0.0000     0.000
   01/02/2000 01:24:00      0.000     0.000    0.0000     0.000
   01/02/2000 01:25:00      0.000     0.000    0.0000     0.000
   01/02/2000 01:26:00      0.000     0.000    0.0000     0.000
   01/02/2000 01:27:00      0.000     0.000    0.0000     0.000
   01/02/2000 01:28:00      0.000     0.000    0.0000     0.000
   01/02/2000 01:29:00      0.000     0.000    0.0000     0.000
   01/02/2000 01:30:00      0.000     0.000    0.0000     0.000
   01/02/2000 01:31:00      0.000     0.000    0.0000     0.000
   01/02/2000 01:32:00      0.000     0.000    0.0000     0.000
   01/02/2000 01:33:00      0.000     0.000    0.0000     0.000
   01/02/2000 01:34:00      0.000     0.000    0.0000     0.000
   01/02/2000 01:35:00      0.000     0.000    0.0000     0.000
   01/02/2000 01:36:00      0.000     0.000    0.0000     0.000
   01/02/2000 01:37:00      0.000     0.000    0.0000     0.000
   01/02/2000 01:38:00      0.000     0.000    0.0000     0.000
   01/02/2000 01:39:00      0.000     0.000    0.0000     0.000
   01/02/2000 01:40:00      0.000     0.000    0.0000     0.000
   01/02/2000 01:41:00      0.000     0.000    0.0000     0.000
   01/02/2000 01:42:00      0.000     0.000    0.0000     0.000
   01/02/2000 01:43:00      0.000     0.000    0.0000     0.000
   01/02/2000 01:44:00      0.000     0.000    0.0000     0.000
   01/02/2000 01:45:00      0.000     0.000    0.0000     0.000
   01/02/2000 01:46:00      0.000     0.000    0.0000     0.000
   01/02/2000 01:47:00      0.000     0.000    0.0000     0.000
   01/02/2000 01:48:00      0.000     0.000    0.0000     0.000
   01/02/2000 01:49:00      0.000     0.000    0.0000     0.000
   01/02/2000 01:50:00      0.000     0.000    0.0000     0.000
   01/02/2000 01:51:00      0.000     0.000    0.0000     0.000
   01/02/2000 01:52:00      0.000     0.000    0.0000     0.000
   01/02/2000 01:53:00      0.000     0.000    0.0000     0.000
   01/02/2000 01:54:00      0.000     0.000    0.0000     0.000
   01/02/2000 01:55:00      0.000     0.000    0.0000     0.000
   01/02/2000 01:56:00      0.000     0.000    0.0000     0.000
   01/02/2000 01:57:00      0.000     0.000    0.0000     0.000
   01/02/2000 01:58:00      0.000     0.000    0.0000     0.000
   01/02/2000 01:59:00      0.000     0.000    0.0000     0.000
   01/02/2000 02:00:00      0.000     0.000    0.0000     0.000
  
  
  <<< Subcatchment S7 >>>
  -------------------------------------------------------------
  Date        Time        Precip.    Losses    Runoff       TSS
                            in/hr     in/hr       CFS      MG/L
  -------------------------------------------------------------
   01/02/2000 00:01:00      0.000     0.000    0.0000     0.000
   01/02/2000 00:02:00      0.000     0.000    0.0000     0.000
   01/02/2000 00:03:00      0.000     0.000    0.0000     0.000
   01/02/2000 00:04:00      0.000     0.000    0.0000     0.000
   01/02/2000 00:05:00      0.000     0.000    0.0000     0.000
   01/02/2000 00:06:00      0.000     0.000    0.0000     0.000
   01/02/2000 00:07:00      0.000     0.000    0.0000     0.000
   01/02/2000 00:08:00      0.000     0.000    0.0000     0.000
   01/02/2000 00:09:00      0.000     0.000    0.0000     0.000
   01/02/2000 00:10:00      0.000     0.000    0.0000     0.000
   01/02/2000 00:11:00      0.000     0.000    0.0000     0.000
   01/02/2000 00:12:00      0.000     0.000    0.0000     0.000
   01/02/2000 00:13:00      0.000     0.000    0.0000     0.000
   01/02/2000 00:14:00      0.000     0.000    0.0000     0.000
   01/02/2000 00:15:00      0.000     0.000    0.0000     0.000
   01/02/2000 00:16:00      0.000     0.000    0.0000     0.000
   01/02/2000 00:17:00      0.000     0.000    0.0000     0.000
   01/02/2000 00:18:00      0.000     0.000    0.0000     0.000
   01/02/2000 00:19:00      0.000     0.000    0.0000     0.000
   01/02/2000 00:20:00      0.000     0.000    0.0000     0.000
   01/02/2000 00:21:00      0.000     0.000    0.0000     0.000
   01/02/2000 00:22:00      0.000     0.000    0.0000     0.000
   01/02/2000 00:23:00      0.000     0.000    0.0000     0.000
   01/02/2000 00:24:00      0.000     0.000    0.0000     0.000
   01/02/2000 00:25:00      0.000     0.000    0.0000     0.000
   01/02/2000 00:26:00      0.000     0.000    0.0000     0.000
   01/02/2000 00:27:00      0.000     0.000    0.0000     0.000
   01/02/2000 00:28:00      0.000     0.000    0.0000     0.000
   01/02/2000 00:29:00      0.000     0.000    0.0000     0.000
   01/02/2000 00:30:00      0.000     0.000    0.0000     0.000
   01/02/2000 00:31:00      0.000     0.000    0.0000     0.000
   01/02/2000 00:32:00      0.000     0.000    0.0000     0.000
   01/02/2000 00:33:00      0.000     0.000    0.0000     0.000
   01/02/2000 00:34:00      0.000     0.000    0.0000     0.000
   01/02/2000 00:35:00      0.000     0.000    0.0000     0.000
   01/02/2000 00:36:00      0.000     0.000    0.0000     0.000
   01/02/2000 00:37:00      0.000     0.000    0.0000     0.000
   01/02/2000 00:38:00      0.000     0.000    0.0000     0.000
   01/02/2000 00:39:00      0.000     0.000    0.0000     0.000
   01/02/2000 00:40:00      0.000     0.000    0.0000     0.000
   01/02/2000 00:41:00      0.000     0.000    0.0000     0.000
   01/02/2000 00:42:00      0.000     0.000    0.0000     0.000
   01/02/2000 00:43:00      0.000     0.000    0.0000     0.000
   01/02/2000 00:44:00      0.000     0.000    0.0000     0.000
   01/02/2000 00:45:00      0.000     0.000    0.0000     0.000
   01/02/2000 00:46:00      0.000     0.000    0.0000     0.000
   01/02/2000 00:47:00      0.000     0.000    0.0000     0.000
   01/02/2000 00:48:00      0.000     0.000    0.0000     0.000
   01/02/2000 00:49:00      0.000     0.000    0.0000     0.000
   01/02/2000 00:50:00      0.000     0.000    0.0000     0.000
   01/02/2000 00:51:00      0.000     0.000    0.0000     0.000
   01/02/2000 00:52:00      0.000     0.000    0.0000     0.000
   01/02/2000 00:53:00      0.000     0.000    0.0000     0.000
   01/02/2000 00:54:00      0.000     0.000    0.0000     0.000
   01/02/2000 00:55:00      0.000     0.000    0.0000     0.000
   01/02/2000 00:56:00      0.000     0.000    0.0000     0.000
   01/02/2000 00:57:00      0.000     0.000    0.0000     0.000
   01/02/2000 00:58:00      0.000     0.000    0.0000     0.000
   01/02/2000 00:59:00      0.000     0.000    0.0000     0.000
   01/02/2000 01:00:00      0.000     0.000    0.0000     0.000
   01/02/2000 01:01:00      0.000     0.000    0.0000     0.000
   01/02/2000 01:02:00      0.000     0.000    0.0000     0.000
   01/02/2000 01:03:00      0.000     0.000    0.0000     0.000
   01/02/2000 01:04:00      0.000     0.000    0.0000     0.000
   01/02/2000 01:05:00      0.000     0.000    0.0000     0.000
   01/02/2000 01:06:00      0.000     0.000    0.0000     0.000
   01/02/2000 01:07:00      0.000     0.000    0.0000     0.000
   01/02/2000 01:08:00      0.000     0.000    0.0000     0.000
   01/02/2000 01:09:00      0.000     0.000    0.0000     0.000
   01/02/2000 01:10:00      0.000     0.000    0.0000     0.000
   01/02/2000 01:11:00      0.000     0.000    0.0000     0.000
   01/02/2000 01:12:00      0.000     0.000    0.0000     0.000
   01/02/2000 01:13:00      0.000     0.000    0.0000     0.000
   01/02/2000 01:14:00      0.000     0.000    0.0000     0.000
   01/02/2000 01:15:00      0.000     0.000    0.0000     0.000
   01/02/2000 01:16:00      0.000     0.000    0.0000     0.000
   01/02/2000 01:17:00      0.000     0.000    0.0000     0.000
   01/02/2000 01:18:00      0.000     0.000    0.0000     0.000
   01/02/2000 01:19:00      0.000     0.000    0.0000     0.000
   01/02/2000 01:20:00      0.000     0.000    0.0000     0.000
   01/02/2000 01:21:00      0.000     0.000    0.0000     0.000
   01/02/2000 01:22:00      0.000     0.000    0.0000     0.000
   01/02/2000 01:23:00      0.000     0.000    0.0000     0.000
   01/02/2000 01:24:00      0.000     0.000    0.0000     0.000
   01/02/2000 01:25:00      0.000     0.000    0.0000     0.000
   01/02/2000 01:26:00      0.000     0.000    0.0000     0.000
   01/02/2000 01:27:00      0.000     0.000    0.0000     0.000
   01/02/2000 01:28:00      0.000     0.000    0.0000     0.000
   01/02/2000 01:29:00      0.000     0.000    0.0000     0.000
   01/02/2000 01:30:00      0.000     0.000    0.0000     0.000
   01/02/2000 01:31:00      0.000     0.000    0.0000     0.000
   01/02/2000 01:32:00      0.000     0.000    0.0000     0.000
   01/02/2000 01:33:00      0.000     0.000    0.0000     0.000
   01/02/2000 01:34:00      0.000     0.000    0.0000     0.000
   01/02/2000 01:35:00      0.000     0.000    0.0000     0.000
   01/02/2000 01:36:00      0.000     0.000    0.0000     0.000
   01/02/2000 01:37:00      0.000     0.000    0.0000     0.000
   01/02/2000 01:38:00      0.000     0.000    0.0000     0.000
   01/02/2000 01:39:00      0.000     0.000    0.0000     0.000
   01/02/2000 01:40:00      0.000     0.000    0.0000     0.000
   01/02/2000 01:41:00      0.000     0.000    0.0000     0.000
   01/02/2000 01:42:00      0.000     0.000    0.0000     0.000
   01/02/2000 01:43:00      0.000     0.000    0.0000     0.000
   01/02/2000 01:44:00      0.000     0.000    0.0000     0.000
   01/02/2000 01:45:00      0.000     0.000    0.0000     0.000
   01/02/2000 01:46:00      0.000     0.000    0.0000     0.000
   01/02/2000 01:47:00      0.000     0.000    0.0000     0.000
   01/02/2000 01:48:00      0.000     0.000    0.0000     0.000
   01/02/2000 01:49:00      0.000     0.000    0.0000     0.000
   01/02/2000 01:50:00      0.000     0.000    0.0000     0.000
   01/02/2000 01:51:00      0.000     0.000    0.0000     0.000
   01/02/2000 01:52:00      0.000     0.000    0.0000     0.000
   01/02/2000 01:53:00      0.000     0.000    0.0000     0.000
   01/02/2000 01:54:00      0.000     0.000    0.0000     0.000
   01/02/2000 01:55:00      0.000     0.000    0.0000     0.000
   01/02/2000 01:56:00      0.000     0.000    0.0000     0.000
   01/02/2000 01:57:00      0.000     0.000    0.0000     0.000
   01/02/2000 01:58:00      0.000     0.000    0.0000     0.000
   01/02/2000 01:59:00      0.000     0.000    0.0000     0.000
   01/02/2000 02:00:00      0.000     0.000    0.0000     0.000
  
  
  ************************
  Node Time Series Results
  ************************
  
  <<< Node J1 >>>
  --------------------------------------------------------------------------
                           Inflow  Flooding     Depth      Head       TSS
  Date        Time            CFS       CFS      feet      feet      MG/L
  --------------------------------------------------------------------------
   01/02/2000 00:01:00      0.000     0.000     0.000  4973.000     0.000
   01/02/2000 00:02:00      0.000     0.000     0.000  4973.000     0.000
   01/02/2000 00:03:00      0.000     0.000     0.000  4973.000     0.000
   01/02/2000 00:04:00      0.000     0.000     0.000  4973.000     0.000
   01/02/2000 00:05:00      0.000     0.000     0.000  4973.000     0.000
   01/02/2000 00:06:00      0.000     0.000     0.000  4973.000     0.000
   01/02/2000 00:07:00      0.000     0.000     0.000  4973.000     0.000
   01/02/2000 00:08:00      0.000     0.000     0.000  4973.000     0.000
   01/02/2000 00:09:00      0.000     0.000     0.000  4973.000     0.000
   01/02/2000 00:10:00      0.000     0.000     0.000  4973.000     0.000
   01/02/2000 00:11:00      0.000     0.000     0.000  4973.000     0.000
   01/02/2000 00:12:00      0.000     0.000     0.000  4973.000     0.000
   01/02/2000 00:13:00      0.000     0.000     0.000  4973.000     0.000
   01/02/2000 00:14:00      0.000     0.000     0.000  4973.000     0.000
   01/02/2000 00:15:00      0.000     0.000     0.000  4973.000     0.000
   01/02/2000 00:16:00      0.000     0.000     0.000  4973.000     0.000
   01/02/2000 00:17:00      0.000     0.000     0.000  4973.000     0.000
   01/02/2000 00:18:00      0.000     0.000     0.000  4973.000     0.000
   01/02/2000 00:19:00      0.000     0.000     0.000  4973.000     0.000
   01/02/2000 00:20:00      0.000     0.000     0.000  4973.000     0.000
   01/02/2000 00:21:00      0.000     0.000     0.000  4973.000     0.000
   01/02/2000 00:22:00      0.000     0.000     0.000  4973.000     0.000
   01/02/2000 00:23:00      0.000     0.000     0.000  4973.000     0.000
   01/02/2000 00:24:00      0.000     0.000     0.000  4973.000     0.000
   01/02/2000 00:25:00      0.000     0.000     0.000  4973.000     0.000
   01/02/2000 00:26:00      0.000     0.000     0.000  4973.000     0.000
   01/02/2000 00:27:00      0.000     0.000     0.000  4973.000     0.000
   01/02/2000 00:28:00      0.000     0.000     0.000  4973.000     0.000
   01/02/2000 00:29:00      0.000     0.000     0.000  4973.000     0.000
   01/02/2000 00:30:00      0.000     0.000     0.000  4973.000     0.000
   01/02/2000 00:31:00      0.000     0.000     0.000  4973.000     0.000
   01/02/2000 00:32:00      0.000     0.000     0.000  4973.000     0.000
   01/02/2000 00:33:00      0.000     0.000     0.000  4973.000     0.000
   01/02/2000 00:34:00      0.000     0.000     0.000  4973.000     0.000
   01/02/2000 00:35:00      0.000     0.000     0.000  4973.000     0.000
   01/02/2000 00:36:00      0.000     0.000     0.000  4973.000     0.000
   01/02/2000 00:37:00      0.000     0.000     0.000  4973.000     0.000
   01/02/2000 00:38:00      0.000     0.000     0.000  4973.000     0.000
   01/02/2000 00:39:00      0.000     0.000     0.000  4973.000     0.000
   01/02/2000 00:40:00      0.000     0.000     0.000  4973.000     0.000
   01/02/2000 00:41:00      0.000     0.000     0.000  4973.000     0.000
   01/02/2000 00:42:00      0.000     0.000     0.000  4973.000     0.000
   01/02/2000 00:43:00      0.000     0.000     0.000  4973.000     0.000
   01/02/2000 00:44:00      0.000     0.000     0.000  4973.000     0.000
   01/02/2000 00:45:00      0.000     0.000     0.000  4973.000     0.000
   01/02/2000 00:46:00      0.000     0.000     0.000  4973.000     0.000
   01/02/2000 00:47:00      0.000     0.000     0.000  4973.000     0.000
   01/02/2000 00:48:00      0.000     0.000     0.000  4973.000     0.000
   01/02/2000 00:49:00      0.000     0.000     0.000  4973.000     0.000
   01/02/2000 00:50:00      0.000     0.000     0.000  4973.000     0.000
   01/02/2000 00:51:00      0.000     0.000     0.000  4973.000     0.000
   01/02/2000 00:52:00      0.000     0.000     0.000  4973.000     0.000
   01/02/2000 00:53:00      0.000     0.000     0.000  4973.000     0.000
   01/02/2000 00:54:00      0.000     0.000     0.000  4973.000     0.000
   01/02/2000 00:55:00      0.000     0.000     0.000  4973.000     0.000
   01/02/2000 00:56:00      0.000     0.000     0.000  4973.000     0.000
   01/02/2000 00:57:00      0.000     0.000     0.000  4973.000     0.000
   01/02/2000 00:58:00      0.000     0.000     0.000  4973.000     0.000
   01/02/2000 00:59:00      0.000     0.000     0.000  4973.000     0.000
   01/02/2000 01:00:00      0.000     0.000     0.000  4973.000     0.000
   01/02/2000 01:01:00      0.000     0.000     0.000  4973.000     0.000
   01/02/2000 01:02:00      0.000     0.000     0.000  4973.000     0.000
   01/02/2000 01:03:00      0.000     0.000     0.000  4973.000     0.000
   01/02/2000 01:04:00      0.000     0.000     0.000  4973.000     0.000
   01/02/2000 01:05:00      0.000     0.000     0.000  4973.000     0.000
   01/02/2000 01:06:00      0.000     0.000     0.000  4973.000     0.000
   01/02/2000 01:07:00      0.000     0.000     0.000  4973.000     0.000
   01/02/2000 01:08:00      0.000     0.000     0.000  4973.000     0.000
   01/02/2000 01:09:00      0.000     0.000     0.000  4973.000     0.000
   01/02/2000 01:10:00      0.000     0.000     0.000  4973.000     0.000
   01/02/2000 01:11:00      0.000     0.000     0.000  4973.000     0.000
   01/02/2000 01:12:00      0.000     0.000     0.000  4973.000     0.000
   01/02/2000 01:13:00      0.000     0.000     0.000  4973.000     0.000
   01/02/2000 01:14:00      0.000     0.000     0.000  4973.000     0.000
   01/02/2000 01:15:00      0.000     0.000     0.000  4973.000     0.000
   01/02/2000 01:16:00      0.000     0.000     0.000  4973.000     0.000
   01/02/2000 01:17:00      0.000     0.000     0.000  4973.000     0.000
   01/02/2000 01:18:00      0.000     0.000     0.000  4973.000     0.000
   01/02/2000 01:19:00      0.000     0.000     0.000  4973.000     0.000
   01/02/2000 01:20:00      0.000     0.000     0.000  4973.000     0.000
   01/02/2000 01:21:00      0.000     0.000     0.000  4973.000     0.000
   01/02/2000 01:22:00      0.000     0.000     0.000  4973.000     0.000
   01/02/2000 01:23:00      0.000     0.000     0.000  4973.000     0.000
   01/02/2000 01:24:00      0.000     0.000     0.000  4973.000     0.000
   01/02/2000 01:25:00      0.000     0.000     0.000  4973.000     0.000
   01/02/2000 01:26:00      0.000     0.000     0.000  4973.000     0.000
   01/02/2000 01:27:00      0.000     0.000     0.000  4973.000     0.000
   01/02/2000 01:28:00      0.000     0.000     0.000  4973.000     0.000
   01/02/2000 01:29:00      0.000     0.000     0.000  4973.000     0.000
   01/02/2000 01:30:00      0.000     0.000     0.000  4973.000     0.000
   01/02/2000 01:31:00      0.000     0.000     0.000  4973.000     0.000
   01/02/2000 01:32:00      0.000     0.000     0.000  4973.000     0.000
   01/02/2000 01:33:00      0.000     0.000     0.000  4973.000     0.000
   01/02/2000 01:34:00      0.000     0.000     0.000  4973.000     0.000
   01/02/2000 01:35:00      0.000     0.000     0.000  4973.000     0.000
   01/02/2000 01:36:00      0.000     0.000     0.000  4973.000     0.000
   01/02/2000 01:37:00      0.000     0.000     0.000  4973.000     0.000
   01/02/2000 01:38:00      0.000     0.000     0.000  4973.000     0.000
   01/02/2000 01:39:00      0.000     0.000     0.000  4973.000     0.000
   01/02/2000 01:40:00      0.000     0.000     0.000  4973.000     0.000
   01/02/2000 01:41:00      0.000     0.000     0.000  4973.000     0.000
   01/02/2000 01:42:00      0.000     0.000     0.000  4973.000     0.000
   01/02/2000 01:43:00      0.000     0.000     0.000  4973.000     0.000
   01/02/2000 01:44:00      0.000     0.000     0.000  4973.000     0.000
   01/02/2000 01:45:00      0.000     0.000     0.000  4973.000     0.000
   01/02/2000 01:46:00      0.000     0.000     0.000  4973.000     0.000
   01/02/2000 01:47:00      0.000     0.000     0.000  4973.000     0.000
   01/02/2000 01:48:00      0.000     0.000     0.000  4973.000     0.000
   01/02/2000 01:49:00      0.000     0.000     0.000  4973.000     0.000
   01/02/2000 01:50:00      0.000     0.000     0.000  4973.000     0.000
   01/02/2000 01:51:00      0.000     0.000     0.000  4973.000     0.000
   01/02/2000 01:52:00      0.000     0.000     0.000  4973.000     0.000
   01/02/2000 01:53:00      0.000     0.000     0.000  4973.000     0.000
   01/02/2000 01:54:00      0.000     0.000     0.000  4973.000     0.000
   01/02/2000 01:55:00      0.000     0.000     0.000  4973.000     0.000
   01/02/2000 01:56:00      0.000     0.000     0.000  4973.000     0.000
   01/02/2000 01:57:00      0.000     0.000     0.000  4973.000     0.000
   01/02/2000 01:58:00      0.000     0.000     0.000  4973.000     0.000
   01/02/2000 01:59:00      0.000     0.000     0.000  4973.000     0.000
   01/02/2000 02:00:00      0.000     0.000     0.000  4973.000     0.000
  
  
  <<< Node J2 >>>
[...]
   01/02/2000 01:42:00      0.000     0.000     0.000     0.000     0.000
   01/02/2000 01:43:00      0.000     0.000     0.000     0.000     0.000
   01/02/2000 01:44:00      0.000     0.000     0.000     0.000     0.000
   01/02/2000 01:45:00      0.000     0.000     0.000     0.000     0.000
   01/02/2000 01:46:00      0.000     0.000     0.000     0.000     0.000
   01/02/2000 01:47:00      0.000     0.000     0.000     0.000     0.000
   01/02/2000 01:48:00      0.000     0.000     0.000     0.000     0.000
   01/02/2000 01:49:00      0.000     0.000     0.000     0.000     0.000
   01/02/2000 01:50:00      0.000     0.000     0.000     0.000     0.000
   01/02/2000 01:51:00      0.000     0.000     0.000     0.000     0.000
   01/02/2000 01:52:00      0.000     0.000     0.000     0.000     0.000
   01/02/2000 01:53:00      0.000     0.000     0.000     0.000     0.000
   01/02/2000 01:54:00      0.000     0.000     0.000     0.000     0.000
   01/02/2000 01:55:00      0.000     0.000     0.000     0.000     0.000
   01/02/2000 01:56:00      0.000     0.000     0.000     0.000     0.000
   01/02/2000 01:57:00      0.000     0.000     0.000     0.000     0.000
   01/02/2000 01:58:00      0.000     0.000     0.000     0.000     0.000
   01/02/2000 01:59:00      0.000     0.000     0.000     0.000     0.000
   01/02/2000 02:00:00      0.000     0.000     0.000     0.000     0.000
  
  
  <<< Link C10 >>>
  --------------------------------------------------------------------------
                             Flow  Velocity     Depth  Capacity/       TSS
  Date        Time            CFS    ft/sec      feet   Setting       MG/L
  --------------------------------------------------------------------------
   01/02/2000 00:01:00      0.000     0.000     0.000     0.000     0.000
   01/02/2000 00:02:00      0.000     0.000     0.000     0.000     0.000
   01/02/2000 00:03:00      0.000     0.000     0.000     0.000     0.000
   01/02/2000 00:04:00      0.000     0.000     0.000     0.000     0.000
   01/02/2000 00:05:00      0.000     0.000     0.000     0.000     0.000
   01/02/2000 00:06:00      0.000     0.000     0.000     0.000     0.000
   01/02/2000 00:07:00      0.000     0.000     0.000     0.000     0.000
   01/02/2000 00:08:00      0.000     0.000     0.000     0.000     0.000
   01/02/2000 00:09:00      0.000     0.000     0.000     0.000     0.000
   01/02/2000 00:10:00      0.000     0.000     0.000     0.000     0.000
   01/02/2000 00:11:00      0.000     0.000     0.000     0.000     0.000
   01/02/2000 00:12:00      0.000     0.000     0.000     0.000     0.000
   01/02/2000 00:13:00      0.000     0.000     0.000     0.000     0.000
   01/02/2000 00:14:00      0.000     0.000     0.000     0.000     0.000
   01/02/2000 00:15:00      0.000     0.000     0.000     0.000     0.000
   01/02/2000 00:16:00      0.000     0.000     0.000     0.000     0.000
   01/02/2000 00:17:00      0.000     0.000     0.000     0.000     0.000
   01/02/2000 00:18:00      0.000     0.000     0.000     0.000     0.000
   01/02/2000 00:19:00      0.000     0.000     0.000     0.000     0.000
   01/02/2000 00:20:00      0.000     0.000     0.000     0.000     0.000
   01/02/2000 00:21:00      0.000     0.000     0.000     0.000     0.000
   01/02/2000 00:22:00      0.000     0.000     0.000     0.000     0.000
   01/02/2000 00:23:00      0.000     0.000     0.000     0.000     0.000
   01/02/2000 00:24:00      0.000     0.000     0.000     0.000     0.000
   01/02/2000 00:25:00      0.000     0.000     0.000     0.000     0.000
   01/02/2000 00:26:00      0.000     0.000     0.000     0.000     0.000
   01/02/2000 00:27:00      0.000     0.000     0.000     0.000     0.000
   01/02/2000 00:28:00      0.000     0.000     0.000     0.000     0.000
   01/02/2000 00:29:00      0.000     0.000     0.000     0.000     0.000
   01/02/2000 00:30:00      0.000     0.000     0.000     0.000     0.000
   01/02/2000 00:31:00      0.000     0.000     0.000     0.000     0.000
   01/02/2000 00:32:00      0.000     0.000     0.000     0.000     0.000
   01/02/2000 00:33:00      0.000     0.000     0.000     0.000     0.000
   01/02/2000 00:34:00      0.000     0.000     0.000     0.000     0.000
   01/02/2000 00:35:00      0.000     0.000     0.000     0.000     0.000
   01/02/2000 00:36:00      0.000     0.000     0.000     0.000     0.000
   01/02/2000 00:37:00      0.000     0.000     0.000     0.000     0.000
   01/02/2000 00:38:00      0.000     0.000     0.000     0.000     0.000
   01/02/2000 00:39:00      0.000     0.000     0.000     0.000     0.000
   01/02/2000 00:40:00      0.000     0.000     0.000     0.000     0.000
   01/02/2000 00:41:00      0.000     0.000     0.000     0.000     0.000
   01/02/2000 00:42:00      0.000     0.000     0.000     0.000     0.000
   01/02/2000 00:43:00      0.000     0.000     0.000     0.000     0.000
   01/02/2000 00:44:00      0.000     0.000     0.000     0.000     0.000
   01/02/2000 00:45:00      0.000     0.000     0.000     0.000     0.000
   01/02/2000 00:46:00      0.000     0.000     0.000     0.000     0.000
   01/02/2000 00:47:00      0.000     0.000     0.000     0.000     0.000
   01/02/2000 00:48:00      0.000     0.000     0.000     0.000     0.000
   01/02/2000 00:49:00      0.000     0.000     0.000     0.000     0.000
   01/02/2000 00:50:00      0.000     0.000     0.000     0.000     0.000
   01/02/2000 00:51:00      0.000     0.000     0.000     0.000     0.000
   01/02/2000 00:52:00      0.000     0.000     0.000     0.000     0.000
   01/02/2000 00:53:00      0.000     0.000     0.000     0.000     0.000
   01/02/2000 00:54:00      0.000     0.000     0.000     0.000     0.000
   01/02/2000 00:55:00      0.000     0.000     0.000     0.000     0.000
   01/02/2000 00:56:00      0.000     0.000     0.000     0.000     0.000
   01/02/2000 00:57:00      0.000     0.000     0.000     0.000     0.000
   01/02/2000 00:58:00      0.000     0.000     0.000     0.000     0.000
   01/02/2000 00:59:00      0.000     0.000     0.000     0.000     0.000
   01/02/2000 01:00:00      0.000     0.000     0.000     0.000     0.000
   01/02/2000 01:01:00      0.000     0.000     0.000     0.000     0.000
   01/02/2000 01:02:00      0.000     0.000     0.000     0.000     0.000
   01/02/2000 01:03:00      0.000     0.000     0.000     0.000     0.000
   01/02/2000 01:04:00      0.000     0.000     0.000     0.000     0.000
   01/02/2000 01:05:00      0.000     0.000     0.000     0.000     0.000
   01/02/2000 01:06:00      0.000     0.000     0.000     0.000     0.000
   01/02/2000 01:07:00      0.000     0.000     0.000     0.000     0.000
   01/02/2000 01:08:00      0.000     0.000     0.000     0.000     0.000
   01/02/2000 01:09:00      0.000     0.000     0.000     0.000     0.000
   01/02/2000 01:10:00      0.000     0.000     0.000     0.000     0.000
   01/02/2000 01:11:00      0.000     0.000     0.000     0.000     0.000
   01/02/2000 01:12:00      0.000     0.000     0.000     0.000     0.000
   01/02/2000 01:13:00      0.000     0.000     0.000     0.000     0.000
   01/02/2000 01:14:00      0.000     0.000     0.000     0.000     0.000
   01/02/2000 01:15:00      0.000     0.000     0.000     0.000     0.000
   01/02/2000 01:16:00      0.000     0.000     0.000     0.000     0.000
   01/02/2000 01:17:00      0.000     0.000     0.000     0.000     0.000
   01/02/2000 01:18:00      0.000     0.000     0.000     0.000     0.000
   01/02/2000 01:19:00      0.000     0.000     0.000     0.000     0.000
   01/02/2000 01:20:00      0.000     0.000     0.000     0.000     0.000
   01/02/2000 01:21:00      0.000     0.000     0.000     0.000     0.000
   01/02/2000 01:22:00      0.000     0.000     0.000     0.000     0.000
   01/02/2000 01:23:00      0.000     0.000     0.000     0.000     0.000
   01/02/2000 01:24:00      0.000     0.000     0.000     0.000     0.000
   01/02/2000 01:25:00      0.000     0.000     0.000     0.000     0.000
   01/02/2000 01:26:00      0.000     0.000     0.000     0.000     0.000
   01/02/2000 01:27:00      0.000     0.000     0.000     0.000     0.000
   01/02/2000 01:28:00      0.000     0.000     0.000     0.000     0.000
   01/02/2000 01:29:00      0.000     0.000     0.000     0.000     0.000
   01/02/2000 01:30:00      0.000     0.000     0.000     0.000     0.000
   01/02/2000 01:31:00      0.000     0.000     0.000     0.000     0.000
   01/02/2000 01:32:00      0.000     0.000     0.000     0.000     0.000
   01/02/2000 01:33:00      0.000     0.000     0.000     0.000     0.000
   01/02/2000 01:34:00      0.000     0.000     0.000     0.000     0.000
   01/02/2000 01:35:00      0.000     0.000     0.000     0.000     0.000
   01/02/2000 01:36:00      0.000     0.000     0.000     0.000     0.000
   01/02/2000 01:37:00      0.000     0.000     0.000     0.000     0.000
   01/02/2000 01:38:00      0.000     0.000     0.000     0.000     0.000
   01/02/2000 01:39:00      0.000     0.000     0.000     0.000     0.000
   01/02/2000 01:40:00      0.000     0.000     0.000     0.000     0.000
   01/02/2000 01:41:00      0.000     0.000     0.000     0.000     0.000
   01/02/2000 01:42:00      0.000     0.000     0.000     0.000     0.000
   01/02/2000 01:43:00      0.000     0.000     0.000     0.000     0.000
   01/02/2000 01:44:00      0.000     0.000     0.000     0.000     0.000
   01/02/2000 01:45:00      0.000     0.000     0.000     0.000     0.000
   01/02/2000 01:46:00      0.000     0.000     0.000     0.000     0.000
   01/02/2000 01:47:00      0.000     0.000     0.000     0.000     0.000
   01/02/2000 01:48:00      0.000     0.000     0.000     0.000     0.000
   01/02/2000 01:49:00      0.000     0.000     0.000     0.000     0.000
   01/02/2000 01:50:00      0.000     0.000     0.000     0.000     0.000
   01/02/2000 01:51:00      0.000     0.000     0.000     0.000     0.000
   01/02/2000 01:52:00      0.000     0.000     0.000     0.000     0.000
   01/02/2000 01:53:00      0.000     0.000     0.000     0.000     0.000
   01/02/2000 01:54:00      0.000     0.000     0.000     0.000     0.000
   01/02/2000 01:55:00      0.000     0.000     0.000     0.000     0.000
   01/02/2000 01:56:00      0.000     0.000     0.000     0.000     0.000
   01/02/2000 01:57:00      0.000     0.000     0.000     0.000     0.000
   01/02/2000 01:58:00      0.000     0.000     0.000     0.000     0.000
   01/02/2000 01:59:00      0.000     0.000     0.000     0.000     0.000
   01/02/2000 02:00:00      0.000     0.000     0.000     0.000     0.000
  
  
  <<< Link C11 >>>
  --------------------------------------------------------------------------
                             Flow  Velocity     Depth  Capacity/       TSS
  Date        Time            CFS    ft/sec      feet   Setting       MG/L
  --------------------------------------------------------------------------
   01/02/2000 00:01:00      0.000     0.000     0.000     0.000     0.000
   01/02/2000 00:02:00      0.000     0.000     0.000     0.000     0.000
   01/02/2000 00:03:00      0.000     0.000     0.000     0.000     0.000
   01/02/2000 00:04:00      0.000     0.000     0.000     0.000     0.000
   01/02/2000 00:05:00      0.000     0.000     0.000     0.000     0.000
   01/02/2000 00:06:00      0.000     0.000     0.000     0.000     0.000
   01/02/2000 00:07:00      0.000     0.000     0.000     0.000     0.000
   01/02/2000 00:08:00      0.000     0.000     0.000     0.000     0.000
   01/02/2000 00:09:00      0.000     0.000     0.000     0.000     0.000
   01/02/2000 00:10:00      0.000     0.000     0.000     0.000     0.000
   01/02/2000 00:11:00      0.000     0.000     0.000     0.000     0.000
   01/02/2000 00:12:00      0.000     0.000     0.000     0.000     0.000
   01/02/2000 00:13:00      0.000     0.000     0.000     0.000     0.000
   01/02/2000 00:14:00      0.000     0.000     0.000     0.000     0.000
   01/02/2000 00:15:00      0.000     0.000     0.000     0.000     0.000
   01/02/2000 00:16:00      0.000     0.000     0.000     0.000     0.000
   01/02/2000 00:17:00      0.000     0.000     0.000     0.000     0.000
   01/02/2000 00:18:00      0.000     0.000     0.000     0.000     0.000
   01/02/2000 00:19:00      0.000     0.000     0.000     0.000     0.000
   01/02/2000 00:20:00      0.000     0.000     0.000     0.000     0.000
   01/02/2000 00:21:00      0.000     0.000     0.000     0.000     0.000
   01/02/2000 00:22:00      0.000     0.000     0.000     0.000     0.000
   01/02/2000 00:23:00      0.000     0.000     0.000     0.000     0.000
   01/02/2000 00:24:00      0.000     0.000     0.000     0.000     0.000
   01/02/2000 00:25:00      0.000     0.000     0.000     0.000     0.000
   01/02/2000 00:26:00      0.000     0.000     0.000     0.000     0.000
   01/02/2000 00:27:00      0.000     0.000     0.000     0.000     0.000
   01/02/2000 00:28:00      0.000     0.000     0.000     0.000     0.000
   01/02/2000 00:29:00      0.000     0.000     0.000     0.000     0.000
   01/02/2000 00:30:00      0.000     0.000     0.000     0.000     0.000
   01/02/2000 00:31:00      0.000     0.000     0.000     0.000     0.000
   01/02/2000 00:32:00      0.000     0.000     0.000     0.000     0.000
   01/02/2000 00:33:00      0.000     0.000     0.000     0.000     0.000
   01/02/2000 00:34:00      0.000     0.000     0.000     0.000     0.000
   01/02/2000 00:35:00      0.000     0.000     0.000     0.000     0.000
   01/02/2000 00:36:00      0.000     0.000     0.000     0.000     0.000
   01/02/2000 00:37:00      0.000     0.000     0.000     0.000     0.000
   01/02/2000 00:38:00      0.000     0.000     0.000     0.000     0.000
   01/02/2000 00:39:00      0.000     0.000     0.000     0.000     0.000
   01/02/2000 00:40:00      0.000     0.000     0.000     0.000     0.000
   01/02/2000 00:41:00      0.000     0.000     0.000     0.000     0.000
   01/02/2000 00:42:00      0.000     0.000     0.000     0.000     0.000
   01/02/2000 00:43:00      0.000     0.000     0.000     0.000     0.000
   01/02/2000 00:44:00      0.000     0.000     0.000     0.000     0.000
   01/02/2000 00:45:00      0.000     0.000     0.000     0.000     0.000
   01/02/2000 00:46:00      0.000     0.000     0.000     0.000     0.000
   01/02/2000 00:47:00      0.000     0.000     0.000     0.000     0.000
   01/02/2000 00:48:00      0.000     0.000     0.000     0.000     0.000
   01/02/2000 00:49:00      0.000     0.000     0.000     0.000     0.000
   01/02/2000 00:50:00      0.000     0.000     0.000     0.000     0.000
   01/02/2000 00:51:00      0.000     0.000     0.000     0.000     0.000
   01/02/2000 00:52:00      0.000     0.000     0.000     0.000     0.000
   01/02/2000 00:53:00      0.000     0.000     0.000     0.000     0.000
   01/02/2000 00:54:00      0.000     0.000     0.000     0.000     0.000
   01/02/2000 00:55:00      0.000     0.000     0.000     0.000     0.000
   01/02/2000 00:56:00      0.000     0.000     0.000     0.000     0.000
   01/02/2000 00:57:00      0.000     0.000     0.000     0.000     0.000
   01/02/2000 00:58:00      0.000     0.000     0.000     0.000     0.000
   01/02/2000 00:59:00      0.000     0.000     0.000     0.000     0.000
   01/02/2000 01:00:00      0.000     0.000     0.000     0.000     0.000
   01/02/2000 01:01:00      0.000     0.000     0.000     0.000     0.000
   01/02/2000 01:02:00      0.000     0.000     0.000     0.000     0.000
   01/02/2000 01:03:00      0.000     0.000     0.000     0.000     0.000
   01/02/2000 01:04:00      0.000     0.000     0.000     0.000     0.000
   01/02/2000 01:05:00      0.000     0.000     0.000     0.000     0.000
   01/02/2000 01:06:00      0.000     0.000     0.000     0.000     0.000
   01/02/2000 01:07:00      0.000     0.000     0.000     0.000     0.000
   01/02/2000 01:08:00      0.000     0.000     0.000     0.000     0.000
   01/02/2000 01:09:00      0.000     0.000     0.000     0.000     0.000
   01/02/2000 01:10:00      0.000     0.000     0.000     0.000     0.000
   01/02/2000 01:11:00      0.000     0.000     0.000     0.000     0.000
   01/02/2000 01:12:00      0.000     0.000     0.000     0.000     0.000
   01/02/2000 01:13:00      0.000     0.000     0.000     0.000     0.000
   01/02/2000 01:14:00      0.000     0.000     0.000     0.000     0.000
   01/02/2000 01:15:00      0.000     0.000     0.000     0.000     0.000
   01/02/2000 01:16:00      0.000     0.000     0.000     0.000     0.000
   01/02/2000 01:17:00      0.000     0.000     0.000     0.000     0.000
   01/02/2000 01:18:00      0.000     0.000     0.000     0.000     0.000
   01/02/2000 01:19:00      0.000     0.000     0.000     0.000     0.000
   01/02/2000 01:20:00      0.000     0.000     0.000     0.000     0.000
   01/02/2000 01:21:00      0.000     0.000     0.000     0.000     0.000
   01/02/2000 01:22:00      0.000     0.000     0.000     0.000     0.000
   01/02/2000 01:23:00      0.000     0.000     0.000     0.000     0.000
   01/02/2000 01:24:00      0.000     0.000     0.000     0.000     0.000
   01/02/2000 01:25:00      0.000     0.000     0.000     0.000     0.000
   01/02/2000 01:26:00      0.000     0.000     0.000     0.000     0.000
   01/02/2000 01:27:00      0.000     0.000     0.000     0.000     0.000
   01/02/2000 01:28:00      0.000     0.000     0.000     0.000     0.000
   01/02/2000 01:29:00      0.000     0.000     0.000     0.000     0.000
   01/02/2000 01:30:00      0.000     0.000     0.000     0.000     0.000
   01/02/2000 01:31:00      0.000     0.000     0.000     0.000     0.000
   01/02/2000 01:32:00      0.000     0.000     0.000     0.000     0.000
   01/02/2000 01:33:00      0.000     0.000     0.000     0.000     0.000
   01/02/2000 01:34:00      0.000     0.000     0.000     0.000     0.000
   01/02/2000 01:35:00      0.000     0.000     0.000     0.000     0.000
   01/02/2000 01:36:00      0.000     0.000     0.000     0.000     0.000
   01/02/2000 01:37:00      0.000     0.000     0.000     0.000     0.000
   01/02/2000 01:38:00      0.000     0.000     0.000     0.000     0.000
   01/02/2000 01:39:00      0.000     0.000     0.000     0.000     0.000
   01/02/2000 01:40:00      0.000     0.000     0.000     0.000     0.000
   01/02/2000 01:41:00      0.000     0.000     0.000     0.000     0.000
   01/02/2000 01:42:00      0.000     0.000     0.000     0.000     0.000
   01/02/2000 01:43:00      0.000     0.000     0.000     0.000     0.000
   01/02/2000 01:44:00      0.000     0.000     0.000     0.000     0.000
   01/02/2000 01:45:00      0.000     0.000     0.000     0.000     0.000
   01/02/2000 01:46:00      0.000     0.000     0.000     0.000     0.000
   01/02/2000 01:47:00      0.000     0.000     0.000     0.000     0.000
   01/02/2000 01:48:00      0.000     0.000     0.000     0.000     0.000
   01/02/2000 01:49:00      0.000     0.000     0.000     0.000     0.000
   01/02/2000 01:50:00      0.000     0.000     0.000     0.000     0.000
   01/02/2000 01:51:00      0.000     0.000     0.000     0.000     0.000
   01/02/2000 01:52:00      0.000     0.000     0.000     0.000     0.000
   01/02/2000 01:53:00      0.000     0.000     0.000     0.000     0.000
   01/02/2000 01:54:00      0.000     0.000     0.000     0.000     0.000
   01/02/2000 01:55:00      0.000     0.000     0.000     0.000     0.000
   01/02/2000 01:56:00      0.000     0.000     0.000     0.000     0.000
   01/02/2000 01:57:00      0.000     0.000     0.000     0.000     0.000
   01/02/2000 01:58:00      0.000     0.000     0.000     0.000     0.000
   01/02/2000 01:59:00      0.000     0.000     0.000     0.000     0.000
   01/02/2000 02:00:00      0.000     0.000     0.000     0.000     0.000
  

  Analysis begun on:  Fri Apr  4 01:09:17 2025
  Analysis ended on:  Fri Apr  4 01:09:17 2025
  Total elapsed time: < 1 sec