
  EPA STORM WATER MANAGEMENT MODEL - VERSION 5.2 (Build 5.2.4)
  ------------------------------------------------------------

  A site surface drainage model. 
  See Site_Drainage_Model.txt for more details. 
  
  ****************
  Analysis Options
  ****************
  Flow Units ............... CFS
  Process Models:
    Rainfall/Runoff ........ YES
    RDII ................... NO
    Snowmelt ............... NO
    Groundwater ............ NO
    Flow Routing ........... YES
    Ponding Allowed ........ NO
    Water Quality .......... YES
  Infiltration Method ...... HORTON
  Flow Routing Method ...... DYNWAVE
  Surcharge Method ......... EXTRAN
  Starting Date ............ 01/01/1998 00:00:00
  Ending Date .............. 01/01/1998 06:00:00
  Antecedent Dry Days ...... 5.0
  Report Time Step ......... 00:01:00
  Wet Time Step ............ 00:01:00
  Dry Time Step ............ 01:00:00
  Routing Time Step ........ 15.00 sec
  Variable Time Step ....... YES
  Maximum Trials ........... 8
  Number of Threads ........ 1
  Head Tolerance ........... 0.005000 ft
  
  
  **************************        Volume         Depth
  Runoff Quantity Continuity     acre-feet        inches
  **************************     ---------       -------
  Total Precipitation ......        28.293        11.740
  Evaporation Loss .........         0.000         0.000
  Infiltration Loss ........         1.530         0.635
  Surface Runoff ...........        26.727        11.090
  Final Storage ............         0.062         0.026
  Continuity Error (%) .....        -0.090
  
  
  **************************           TSS
  Runoff Quality Continuity            lbs
  **************************    ----------
  Initial Buildup ..........      1039.376
  Surface Buildup ..........         5.012
  Wet Deposition ...........         0.000
  Sweeping Removal .........         0.000
  Infiltration Loss ........         0.000
  BMP Removal ..............         0.000
  Surface Runoff ...........         0.000
  Remaining Buildup ........      1044.388
  Continuity Error (%) .....         0.000
  
  
  **************************        Volume        Volume
  Flow Routing Continuity        acre-feet      10^6 gal
  **************************     ---------     ---------
  Dry Weather Inflow .......         0.000         0.000
  Wet Weather Inflow .......        26.718         8.706
  Groundwater Inflow .......         0.000         0.000
  RDII Inflow ..............         0.000         0.000
  External Inflow ..........         4.958         1.616
  External Outflow .........        20.731         6.756
  Flooding Loss ............        10.748         3.502
  Evaporation Loss .........         0.000         0.000
  Exfiltration Loss ........         0.000         0.000
  Initial Stored Volume ....         0.000         0.000
  Final Stored Volume ......         0.202         0.066
  Continuity Error (%) .....        -0.013
  
  
  **************************           TSS
  Quality Routing Continuity           lbs
  **************************    ----------
  Dry Weather Inflow .......         0.000
  Wet Weather Inflow .......         0.000
  Groundwater Inflow .......         0.000
  RDII Inflow ..............         0.000
  External Inflow ..........         0.000
  External Outflow .........         0.000
  Flooding Loss ............         0.000
  Exfiltration Loss ........         0.000
  Mass Reacted .............         0.000
  Initial Stored Mass ......         0.000
  Final Stored Mass ........         0.000
  Continuity Error (%) .....         0.000
  
  
  ***************************
  Time-Step Critical Elements
  ***************************
  Link C7 (70.58%)
  Link C11 (28.98%)
  
  
  ********************************
  Highest Flow Instability Indexes
  ********************************
  All links are stable.
  
  
  *********************************
  Most Frequent Nonconverging Nodes
  *********************************
  Convergence obtained at all time steps.
  
  
  *************************
  Routing Time Step Summary
  *************************
  Minimum Time Step           :     0.17 sec
  Average Time Step           :     4.74 sec
  Maximum Time Step           :    15.00 sec
  % of Time in Steady State   :     0.00
  Average Iterations per Step :     2.01
  % of Steps Not Converging   :     0.00
  Time Step Frequencies       :
     15.000 -  7.597 sec      :     0.40 %
      7.597 -  3.848 sec      :    70.49 %
      3.848 -  1.949 sec      :    28.87 %
      1.949 -  0.987 sec      :     0.11 %
      0.987 -  0.500 sec      :     0.13 %
  
  
  ***************************
  Subcatchment Runoff Summary
  ***************************
  
  ------------------------------------------------------------------------------------------------------------------------------
                            Total      Total      Total      Total     Imperv       Perv      Total       Total     Peak  Runoff
                           Precip      Runon       Evap      Infil     Runoff     Runoff     Runoff      Runoff   Runoff   Coeff
  Subcatchment                 in         in         in         in         in         in         in    10^6 gal      CFS
  ------------------------------------------------------------------------------------------------------------------------------
  S1                        11.74       0.00       0.00       0.64       6.65       4.44      11.09        1.37   152.32   0.944
  S2                        11.74       0.00       0.00       0.54       7.38       3.80      11.18        1.44   160.18   0.952
  S3                        11.74       0.00       0.00       0.89       4.63       6.21      10.84        1.10   123.64   0.923
  S4                        11.74       0.00       0.00       0.74       5.84       5.15      10.99        2.03   226.81   0.936
  S5                        11.74       0.00       0.00       0.17      10.27       1.27      11.54        1.50   164.91   0.983
  S6                        11.74       0.00       0.00       0.07      11.12       0.52      11.64        0.63    68.24   0.991
  S7                        11.74       0.00       0.00       1.52       0.00      10.22      10.22        0.65    69.72   0.871
  
  
  ****************************
  Subcatchment Washoff Summary
  ****************************
  
  ----------------------------------
                                 TSS
  Subcatchment                   lbs
  ----------------------------------
  S1                           0.000
  S2                           0.000
  S3                           0.000
  S4                           0.000
  S5                           0.000
  S6                           0.000
  S7                           0.000
  ----------------------------------
  System                       0.000
  
  
  ******************
  Node Depth Summary
  ******************
  
  ---------------------------------------------------------------------------------
                                 Average  Maximum  Maximum  Time of Max    Reported
                                   Depth    Depth      HGL   Occurrence   Max Depth
  Node                 Type         Feet     Feet     Feet  days hr:min        Feet
  ---------------------------------------------------------------------------------
  J1                   JUNCTION     0.82     2.20  4975.20     0  00:35        2.20
  J2                   JUNCTION     0.38     1.00  4970.00     0  00:25        1.00
  J3                   JUNCTION     0.58     2.25  4975.25     0  00:25        2.25
  J4                   JUNCTION     0.47     1.89  4972.89     0  00:28        1.89
  J5                   JUNCTION     1.38     3.00  4972.80     0  00:28        3.00
  J6                   JUNCTION     1.31     3.50  4972.50     0  00:28        3.50
  J7                   JUNCTION     0.51     2.55  4974.05     0  00:35        2.55
  J8                   JUNCTION     1.16     2.43  4968.93     0  00:47        2.43
  J9                   JUNCTION     1.54     3.00  4967.80     0  00:27        3.00
  J10                  JUNCTION     1.50     3.00  4966.80     0  00:23        3.00
  J11                  JUNCTION     1.63     3.68  4966.68     0  00:32        3.68
  O1                   OUTFALL      1.63     3.68  4965.68     0  00:32        3.68
  
  
  *******************
  Node Inflow Summary
  *******************
  
  -------------------------------------------------------------------------------------------------
                                  Maximum  Maximum                  Lateral       Total        Flow
                                  Lateral    Total  Time of Max      Inflow      Inflow     Balance
                                   Inflow   Inflow   Occurrence      Volume      Volume       Error
  Node                 Type           CFS      CFS  days hr:min    10^6 gal    10^6 gal     Percent
  -------------------------------------------------------------------------------------------------
  J1                   JUNCTION   1.6e+02  1.6e+02     0  00:35        2.98        2.98       0.065
  J2                   JUNCTION   1.6e+02  1.6e+02     0  00:35        1.44        1.44      -0.019
  J3                   JUNCTION   1.2e+02  1.2e+02     0  00:35         1.1         1.1       0.004
  J4                   JUNCTION         0       39     0  00:25           0       0.803      -0.058
  J5                   JUNCTION         0    2e+02     0  00:35           0        3.79       0.492
  J6                   JUNCTION         0  3.2e+02     0  00:35           0        5.49       0.165
  J7                   JUNCTION   2.3e+02  2.3e+02     0  00:35        2.03        2.03      -0.065
  J8                   JUNCTION         0  1.6e+02     0  00:46           0        4.89       0.041
  J9                   JUNCTION         0  1.6e+02     0  00:47           0        4.88       0.394
  J10                  JUNCTION   2.3e+02  3.8e+02     0  00:35        2.15        6.91       0.170
  J11                  JUNCTION        68  1.9e+02     0  00:31       0.626        6.76       0.059
  O1                   OUTFALL          0  1.8e+02     0  00:32           0        6.76       0.000
  
  
  **********************
  Node Surcharge Summary
  **********************
  
  Surcharging occurs when water rises above the top of the highest conduit.
  ---------------------------------------------------------------------
                                               Max. Height   Min. Depth
                                   Hours       Above Crown    Below Rim
  Node                 Type      Surcharged           Feet         Feet
  ---------------------------------------------------------------------
  J2                   JUNCTION        0.33          0.000        0.000
  J3                   JUNCTION        0.31          0.000        0.000
  J5                   JUNCTION        0.23          0.000        0.000
  J6                   JUNCTION        0.29          0.000        0.000
  J9                   JUNCTION        0.36          0.000        0.000
  J10                  JUNCTION        0.51          0.000        0.000
  
  
  *********************
  Node Flooding Summary
  *********************
  
  Flooding refers to all water that overflows a node, whether it ponds or not.
  --------------------------------------------------------------------------
                                                             Total   Maximum
                                 Maximum   Time of Max       Flood    Ponded
                        Hours       Rate    Occurrence      Volume     Depth
  Node                 Flooded       CFS   days hr:min    10^6 gal      Feet
  --------------------------------------------------------------------------
  J2                      0.32   1.2e+02      0  00:35       0.420     0.000
  J3                      0.31        87      0  00:35       0.297     0.000
  J5                      0.23     1e+02      0  00:35       0.308     0.000
  J6                      0.29   1.7e+02      0  00:35       0.592     0.000
  J9                      0.36        16      0  00:47       0.100     0.000
  J10                     0.51     3e+02      0  00:35       1.785     0.000
  
  
  ***********************
  Outfall Loading Summary
  ***********************
  
  -------------------------------------------------------------------------
                         Flow       Avg       Max       Total         Total
                         Freq      Flow      Flow      Volume           TSS
  Outfall Node           Pcnt       CFS       CFS    10^6 gal           lbs
  -------------------------------------------------------------------------
  O1                    99.93        60   1.8e+02       6.755         0.000
  -------------------------------------------------------------------------
  System                99.93        60   1.8e+02       6.755         0.000
  
  
  ********************
  Link Flow Summary
  ********************
  
  -----------------------------------------------------------------------------
                                 Maximum  Time of Max   Maximum    Max/    Max/
                                  |Flow|   Occurrence   |Veloc|    Full    Full
  Link                 Type          CFS  days hr:min    ft/sec    Flow   Depth
  -----------------------------------------------------------------------------
  C1                   CONDUIT   1.6e+02     0  00:35      3.46    0.49    0.87
  C2                   CONDUIT        43     0  00:34      3.65    0.97    0.97
  C3                   CONDUIT        39     0  00:25     11.72    1.13    0.92
  C4                   CONDUIT        40     0  00:29      1.39    0.17    0.81
  C5                   CONDUIT        96     0  00:38      1.80    0.61    1.00
  C6                   CONDUIT   2.3e+02     0  00:35      4.66    0.67    0.93
  C7                   CONDUIT   1.6e+02     0  00:46     18.70    1.19    0.85
  C8                   CONDUIT   1.6e+02     0  00:47      3.11    0.61    0.91
  C9                   CONDUIT   1.4e+02     0  00:48      2.35    1.00    1.00
  C10                  CONDUIT   1.4e+02     0  00:54      2.26    0.72    1.00
  C11                  CONDUIT   1.8e+02     0  00:32     12.55    0.94    0.77
  
  
  ***************************
  Flow Classification Summary
  ***************************
  
  -------------------------------------------------------------------------------------
                      Adjusted    ---------- Fraction of Time in Flow Class ---------- 
                       /Actual         Up    Down  Sub   Sup   Up    Down  Norm  Inlet 
  Conduit               Length    Dry  Dry   Dry   Crit  Crit  Crit  Crit  Ltd   Ctrl  
  -------------------------------------------------------------------------------------
  C1                      1.00   0.00  0.00  0.00  1.00  0.00  0.00  0.00  0.99  0.00
  C2                      1.00   0.00  0.00  0.00  0.00  0.00  0.00  1.00  0.00  0.00
  C3                      1.00   0.00  0.00  0.00  0.61  0.39  0.00  0.00  0.42  0.00
  C4                      1.00   0.00  0.00  0.00  1.00  0.00  0.00  0.00  0.92  0.00
  C5                      1.00   0.00  0.00  0.00  1.00  0.00  0.00  0.00  0.03  0.00
  C6                      1.00   0.00  0.00  0.00  1.00  0.00  0.00  0.00  0.98  0.00
  C7                      1.00   0.00  0.00  0.00  0.00  1.00  0.00  0.00  0.74  0.00
  C8                      1.00   0.00  0.00  0.00  1.00  0.00  0.00  0.00  0.98  0.00
  C9                      1.00   0.00  0.00  0.00  1.00  0.00  0.00  0.00  0.20  0.00
  C10                     1.00   0.00  0.00  0.00  1.00  0.00  0.00  0.00  0.15  0.00
  C11                     1.00   0.00  0.00  0.00  0.00  1.00  0.00  0.00  0.31  0.00
  
  
  *************************
  Conduit Surcharge Summary
  *************************
  
  ----------------------------------------------------------------------------
                                                           Hours        Hours 
                         --------- Hours Full --------   Above Full   Capacity
  Conduit                Both Ends  Upstream  Dnstream   Normal Flow   Limited
  ----------------------------------------------------------------------------
  C1                          0.01      0.01      0.23      0.01         0.01
  C2                          0.01      0.32      0.01      0.01         0.01
  C3                          0.01      0.31      0.01      0.33         0.01
  C4                          0.01      0.01      0.23      0.01         0.01
  C5                          0.23      0.23      0.37      0.01         0.01
  C6                          0.01      0.01      0.37      0.01         0.01
  C7                          0.01      0.29      0.01      0.40         0.01
  C8                          0.01      0.01      0.36      0.01         0.01
  C9                          0.36      0.36      0.51      0.01         0.01
  C10                         0.51      0.51      0.65      0.01         0.01
  
  
  ***************************
  Link Pollutant Load Summary
  ***************************
  
  ----------------------------------
                                 TSS
  Link                           lbs
  ----------------------------------
  C1                           0.000
  C2                           0.000
  C3                           0.000
  C4                           0.000
  C5                           0.000
  C6                           0.000
  C7                           0.000
  C8                           0.000
  C9                           0.000
  C10                          0.000
  C11                          0.000
  
  
  ********************************
  Subcatchment Time Series Results
  ********************************
  
  <<< Subcatchment S1 >>>
  -------------------------------------------------------------
  Date        Time        Precip.    Losses    Runoff       TSS
                            in/hr     in/hr       CFS      MG/L
  -------------------------------------------------------------
   01/01/1998 00:01:00      3.480     1.503    0.6296     0.000
   01/01/1998 00:02:00      3.480     1.503    3.1973     0.000
   01/01/1998 00:03:00      3.480     1.407    5.9882     0.000
   01/01/1998 00:04:00      3.480     1.272    7.6451     0.000
   01/01/1998 00:05:00      3.960     1.272    8.4471     0.000
   01/01/1998 00:06:00      3.960     1.041    9.5350     0.000
   01/01/1998 00:07:00      3.960     0.943   10.0000     0.000
   01/01/1998 00:08:00      3.960     0.855   10.1910     0.000
   01/01/1998 00:09:00      3.960     0.776   10.2682     0.000
   01/01/1998 00:10:00      4.560     0.776   10.2992     0.000
   01/01/1998 00:11:00      4.560     0.642   11.2616     0.000
   01/01/1998 00:12:00      4.560     0.585   11.6446     0.000
   01/01/1998 00:13:00      4.560     0.534   11.8069     0.000
   01/01/1998 00:14:00      4.560     0.488   12.0917     0.000
   01/01/1998 00:15:00      7.680     0.488   12.5181     0.000
   01/01/1998 00:16:00      7.680     0.409   18.9822     0.000
   01/01/1998 00:17:00      7.680     0.376   22.3043     0.000
   01/01/1998 00:18:00      7.680     0.347   24.4007     0.000
   01/01/1998 00:19:00      7.680     0.320   26.0387     0.000
   01/01/1998 00:20:00      9.720     0.320   27.4393     0.000
   01/01/1998 00:21:00      9.720     0.274   33.2323     0.000
   01/01/1998 00:22:00      9.720     0.255   36.0971     0.000
   01/01/1998 00:23:00      9.720     0.238   37.8900     0.000
   01/01/1998 00:24:00      9.720     0.222   39.2022     0.000
   01/01/1998 00:25:00     18.840     0.222   40.2227     0.000
   01/01/1998 00:26:00     18.840     0.196   64.0651     0.000
   01/01/1998 00:27:00     18.840     0.185   72.6585     0.000
   01/01/1998 00:28:00     18.840     0.174   76.8333     0.000
   01/01/1998 00:29:00     18.840     0.165   79.5060     0.000
   01/01/1998 00:30:00     34.200     0.165   81.3746     0.000
   01/01/1998 00:31:00     34.200     0.150  126.9829     0.000
   01/01/1998 00:32:00     34.200     0.143  140.0187     0.000
   01/01/1998 00:33:00     34.200     0.138  146.1796     0.000
   01/01/1998 00:34:00     34.200     0.132  149.9362     0.000
   01/01/1998 00:35:00     14.160     0.132  152.3223     0.000
   01/01/1998 00:36:00     14.160     0.123   95.4417     0.000
   01/01/1998 00:37:00     14.160     0.120   81.1145     0.000
   01/01/1998 00:38:00     14.160     0.116   74.9228     0.000
   01/01/1998 00:39:00     14.160     0.113   71.4639     0.000
   01/01/1998 00:40:00      8.520     0.113   69.2804     0.000
   01/01/1998 00:41:00      8.520     0.108   53.4746     0.000
   01/01/1998 00:42:00      8.520     0.106   47.6862     0.000
   01/01/1998 00:43:00      8.520     0.104   44.7800     0.000
   01/01/1998 00:44:00      8.520     0.102   43.0266     0.000
   01/01/1998 00:45:00      5.040     0.102   41.8533     0.000
   01/01/1998 00:46:00      5.040     0.099   33.1045     0.000
   01/01/1998 00:47:00      5.040     0.098   29.4224     0.000
   01/01/1998 00:48:00      5.040     0.096   27.4579     0.000
   01/01/1998 00:49:00      5.040     0.095   26.2403     0.000
   01/01/1998 00:50:00      4.200     0.095   25.4082     0.000
   01/01/1998 00:51:00      4.200     0.094   23.0805     0.000
   01/01/1998 00:52:00      4.200     0.093   21.8569     0.000
   01/01/1998 00:53:00      4.200     0.092   21.1113     0.000
   01/01/1998 00:54:00      4.200     0.092   20.6061     0.000
   01/01/1998 00:55:00      3.600     0.092   20.2387     0.000
   01/01/1998 00:56:00      3.600     0.091   18.7894     0.000
   01/01/1998 00:57:00      3.600     0.090   18.0226     0.000
   01/01/1998 00:58:00      3.600     0.090   17.5584     0.000
   01/01/1998 00:59:00      3.600     0.089   17.2459     0.000
   01/01/1998 01:00:00      2.400     0.089   17.0187     0.000
   01/01/1998 01:01:00      2.400     0.089   14.6377     0.000
   01/01/1998 01:02:00      2.400     0.089   13.4256     0.000
   01/01/1998 01:03:00      2.400     0.088   12.7177     0.000
   01/01/1998 01:04:00      2.400     0.088   12.2594     0.000
   01/01/1998 01:05:00      2.280     0.088   11.9379     0.000
   01/01/1998 01:06:00      2.280     0.088   11.4955     0.000
   01/01/1998 01:07:00      2.280     0.088   11.2008     0.000
   01/01/1998 01:08:00      2.280     0.088   10.9894     0.000
   01/01/1998 01:09:00      2.280     0.087   10.8292     0.000
   01/01/1998 01:10:00      2.160     0.087   10.7029     0.000
   01/01/1998 01:11:00      2.160     0.087   10.4024     0.000
   01/01/1998 01:12:00      2.160     0.087   10.2104     0.000
   01/01/1998 01:13:00      2.160     0.087   10.0777     0.000
   01/01/1998 01:14:00      2.160     0.087    9.9797     0.000
   01/01/1998 01:15:00      2.040     0.087    9.9036     0.000
   01/01/1998 01:16:00      2.040     0.087    9.6477     0.000
   01/01/1998 01:17:00      2.040     0.087    9.4903     0.000
   01/01/1998 01:18:00      2.040     0.087    9.3854     0.000
   01/01/1998 01:19:00      2.040     0.087    9.3103     0.000
   01/01/1998 01:20:00      2.040     0.087    9.2532     0.000
   01/01/1998 01:21:00      2.040     0.087    9.2081     0.000
   01/01/1998 01:22:00      2.040     0.087    9.1712     0.000
   01/01/1998 01:23:00      2.040     0.087    9.1406     0.000
   01/01/1998 01:24:00      2.040     0.087    9.1148     0.000
   01/01/1998 01:25:00      1.920     0.087    9.0930     0.000
   01/01/1998 01:26:00      1.920     0.087    8.8837     0.000
   01/01/1998 01:27:00      1.920     0.087    8.7615     0.000
   01/01/1998 01:28:00      1.920     0.087    8.6846     0.000
   01/01/1998 01:29:00      1.920     0.087    8.6326     0.000
   01/01/1998 01:30:00      1.800     0.087    8.5949     0.000
   01/01/1998 01:31:00      1.800     0.086    8.3786     0.000
   01/01/1998 01:32:00      1.800     0.086    8.2498     0.000
   01/01/1998 01:33:00      1.800     0.086    8.1673     0.000
   01/01/1998 01:34:00      1.800     0.086    8.1107     0.000
   01/01/1998 01:35:00      1.800     0.086    8.0692     0.000
   01/01/1998 01:36:00      1.800     0.086    8.0372     0.000
   01/01/1998 01:37:00      1.800     0.086    8.0115     0.000
   01/01/1998 01:38:00      1.800     0.086    7.9903     0.000
   01/01/1998 01:39:00      1.800     0.086    7.9725     0.000
   01/01/1998 01:40:00      1.680     0.086    7.9574     0.000
   01/01/1998 01:41:00      1.680     0.086    7.7609     0.000
   01/01/1998 01:42:00      1.680     0.086    7.6448     0.000
   01/01/1998 01:43:00      1.680     0.086    7.5716     0.000
   01/01/1998 01:44:00      1.680     0.086    7.5221     0.000
   01/01/1998 01:45:00      1.680     0.086    7.4865     0.000
   01/01/1998 01:46:00      1.680     0.086    7.4594     0.000
   01/01/1998 01:47:00      1.680     0.086    7.4379     0.000
   01/01/1998 01:48:00      1.680     0.086    7.4202     0.000
   01/01/1998 01:49:00      1.680     0.086    7.4055     0.000
   01/01/1998 01:50:00      1.560     0.086    7.3929     0.000
   01/01/1998 01:51:00      1.560     0.086    7.2025     0.000
   01/01/1998 01:52:00      1.560     0.086    7.0891     0.000
   01/01/1998 01:53:00      1.560     0.086    7.0173     0.000
   01/01/1998 01:54:00      1.560     0.086    6.9687     0.000
   01/01/1998 01:55:00      1.560     0.086    6.9339     0.000
   01/01/1998 01:56:00      1.560     0.086    6.9074     0.000
   01/01/1998 01:57:00      1.560     0.086    6.8864     0.000
   01/01/1998 01:58:00      1.560     0.086    6.8693     0.000
   01/01/1998 01:59:00      1.560     0.086    6.8549     0.000
   01/01/1998 02:00:00      0.000     0.086    6.8427     0.000
   01/01/1998 02:01:00      0.000     0.086    4.7023     0.000
   01/01/1998 02:02:00      0.000     0.086    3.5263     0.000
   01/01/1998 02:03:00      0.000     0.086    2.7853     0.000
   01/01/1998 02:04:00      0.000     0.086    2.2736     0.000
   01/01/1998 02:05:00      0.000     0.086    1.8972     0.000
   01/01/1998 02:06:00      0.000     0.086    1.6078     0.000
   01/01/1998 02:07:00      0.000     0.086    1.3778     0.000
   01/01/1998 02:08:00      0.000     0.086    1.1906     0.000
   01/01/1998 02:09:00      0.000     0.086    1.0352     0.000
   01/01/1998 02:10:00      0.000     0.086    0.9044     0.000
   01/01/1998 02:11:00      0.000     0.086    0.7930     0.000
   01/01/1998 02:12:00      0.000     0.086    0.6971     0.000
   01/01/1998 02:13:00      0.000     0.086    0.6140     0.000
   01/01/1998 02:14:00      0.000     0.086    0.5413     0.000
   01/01/1998 02:15:00      0.000     0.086    0.4775     0.000
   01/01/1998 02:16:00      0.000     0.086    0.4212     0.000
   01/01/1998 02:17:00      0.000     0.086    0.3713     0.000
   01/01/1998 02:18:00      0.000     0.086    0.3269     0.000
   01/01/1998 02:19:00      0.000     0.086    0.2873     0.000
   01/01/1998 02:20:00      0.000     0.086    0.2518     0.000
   01/01/1998 02:21:00      0.000     0.086    0.2201     0.000
   01/01/1998 02:22:00      0.000     0.086    0.1916     0.000
   01/01/1998 02:23:00      0.000     0.086    0.1660     0.000
   01/01/1998 02:24:00      0.000     0.086    0.1430     0.000
   01/01/1998 02:25:00      0.000     0.086    0.1223     0.000
   01/01/1998 02:26:00      0.000     0.086    0.1038     0.000
   01/01/1998 02:27:00      0.000     0.086    0.0872     0.000
   01/01/1998 02:28:00      0.000     0.086    0.0725     0.000
   01/01/1998 02:29:00      0.000     0.086    0.0595     0.000
   01/01/1998 02:30:00      0.000     0.086    0.0480     0.000
   01/01/1998 02:31:00      0.000     0.086    0.0381     0.000
   01/01/1998 02:32:00      0.000     0.086    0.0297     0.000
   01/01/1998 02:33:00      0.000     0.086    0.0227     0.000
   01/01/1998 02:34:00      0.000     0.086    0.0174     0.000
   01/01/1998 02:35:00      0.000     0.086    0.0138     0.000
   01/01/1998 02:36:00      0.000     0.086    0.0126     0.000
   01/01/1998 02:37:00      0.000     0.086    0.0118     0.000
   01/01/1998 02:38:00      0.000     0.086    0.0111     0.000
   01/01/1998 02:39:00      0.000     0.086    0.0105     0.000
   01/01/1998 02:40:00      0.000     0.086    0.0099     0.000
   01/01/1998 02:41:00      0.000     0.086    0.0094     0.000
   01/01/1998 02:42:00      0.000     0.086    0.0089     0.000
   01/01/1998 02:43:00      0.000     0.086    0.0084     0.000
   01/01/1998 02:44:00      0.000     0.086    0.0080     0.000
   01/01/1998 02:45:00      0.000     0.086    0.0076     0.000
   01/01/1998 02:46:00      0.000     0.086    0.0072     0.000
   01/01/1998 02:47:00      0.000     0.086    0.0068     0.000
   01/01/1998 02:48:00      0.000     0.086    0.0065     0.000
   01/01/1998 02:49:00      0.000     0.086    0.0062     0.000
   01/01/1998 02:50:00      0.000     0.086    0.0059     0.000
   01/01/1998 02:51:00      0.000     0.086    0.0057     0.000
   01/01/1998 02:52:00      0.000     0.086    0.0054     0.000
   01/01/1998 02:53:00      0.000     0.086    0.0052     0.000
   01/01/1998 02:54:00      0.000     0.086    0.0050     0.000
   01/01/1998 02:55:00      0.000     0.086    0.0047     0.000
   01/01/1998 02:56:00      0.000     0.086    0.0000     0.000
   01/01/1998 02:57:00      0.000     0.086    0.0000     0.000
   01/01/1998 02:58:00      0.000     0.086    0.0000     0.000
   01/01/1998 02:59:00      0.000     0.086    0.0000     0.000
   01/01/1998 03:00:00      0.000     0.086    0.0000     0.000
   01/01/1998 03:01:00      0.000     0.086    0.0000     0.000
   01/01/1998 03:02:00      0.000     0.086    0.0000     0.000
   01/01/1998 03:03:00      0.000     0.086    0.0000     0.000
   01/01/1998 03:04:00      0.000     0.086    0.0000     0.000
   01/01/1998 03:05:00      0.000     0.086    0.0000     0.000
   01/01/1998 03:06:00      0.000     0.086    0.0000     0.000
   01/01/1998 03:07:00      0.000     0.086    0.0000     0.000
   01/01/1998 03:08:00      0.000     0.086    0.0000     0.000
   01/01/1998 03:09:00      0.000     0.086    0.0000     0.000
   01/01/1998 03:10:00      0.000     0.086    0.0000     0.000
   01/01/1998 03:11:00      0.000     0.086    0.0000     0.000
   01/01/1998 03:12:00      0.000     0.086    0.0000     0.000
   01/01/1998 03:13:00      0.000     0.086    0.0000     0.000
   01/01/1998 03:14:00      0.000     0.086    0.0000     0.000
   01/01/1998 03:15:00      0.000     0.086    0.0000     0.000
   01/01/1998 03:16:00      0.000     0.086    0.0000     0.000
   01/01/1998 03:17:00      0.000     0.086    0.0000     0.000
   01/01/1998 03:18:00      0.000     0.086    0.0000     0.000
   01/01/1998 03:19:00      0.000     0.086    0.0000     0.000
   01/01/1998 03:20:00      0.000     0.086    0.0000     0.000
   01/01/1998 03:21:00      0.000     0.086    0.0000     0.000
   01/01/1998 03:22:00      0.000     0.086    0.0000     0.000
   01/01/1998 03:23:00      0.000     0.086    0.0000     0.000
   01/01/1998 03:24:00      0.000     0.086    0.0000     0.000
   01/01/1998 03:25:00      0.000     0.086    0.0000     0.000
   01/01/1998 03:26:00      0.000     0.086    0.0000     0.000
   01/01/1998 03:27:00      0.000     0.086    0.0000     0.000
   01/01/1998 03:28:00      0.000     0.086    0.0000     0.000
   01/01/1998 03:29:00      0.000     0.086    0.0000     0.000
   01/01/1998 03:30:00      0.000     0.086    0.0000     0.000
   01/01/1998 03:31:00      0.000     0.086    0.0000     0.000
   01/01/1998 03:32:00      0.000     0.086    0.0000     0.000
   01/01/1998 03:33:00      0.000     0.086    0.0000     0.000
   01/01/1998 03:34:00      0.000     0.086    0.0000     0.000
   01/01/1998 03:35:00      0.000     0.086    0.0000     0.000
   01/01/1998 03:36:00      0.000     0.086    0.0000     0.000
   01/01/1998 03:37:00      0.000     0.086    0.0000     0.000
   01/01/1998 03:38:00      0.000     0.086    0.0000     0.000
   01/01/1998 03:39:00      0.000     0.086    0.0000     0.000
   01/01/1998 03:40:00      0.000     0.086    0.0000     0.000
   01/01/1998 03:41:00      0.000     0.086    0.0000     0.000
   01/01/1998 03:42:00      0.000     0.086    0.0000     0.000
   01/01/1998 03:43:00      0.000     0.086    0.0000     0.000
   01/01/1998 03:44:00      0.000     0.086    0.0000     0.000
   01/01/1998 03:45:00      0.000     0.086    0.0000     0.000
   01/01/1998 03:46:00      0.000     0.086    0.0000     0.000
   01/01/1998 03:47:00      0.000     0.086    0.0000     0.000
   01/01/1998 03:48:00      0.000     0.086    0.0000     0.000
   01/01/1998 03:49:00      0.000     0.086    0.0000     0.000
   01/01/1998 03:50:00      0.000     0.086    0.0000     0.000
   01/01/1998 03:51:00      0.000     0.086    0.0000     0.000
   01/01/1998 03:52:00      0.000     0.086    0.0000     0.000
   01/01/1998 03:53:00      0.000     0.086    0.0000     0.000
   01/01/1998 03:54:00      0.000     0.086    0.0000     0.000
   01/01/1998 03:55:00      0.000     0.086    0.0000     0.000
   01/01/1998 03:56:00      0.000     0.086    0.0000     0.000
   01/01/1998 03:57:00      0.000     0.086    0.0000     0.000
   01/01/1998 03:58:00      0.000     0.086    0.0000     0.000
   01/01/1998 03:59:00      0.000     0.086    0.0000     0.000
   01/01/1998 04:00:00      0.000     0.086    0.0000     0.000
   01/01/1998 04:01:00      0.000     0.086    0.0000     0.000
   01/01/1998 04:02:00      0.000     0.086    0.0000     0.000
   01/01/1998 04:03:00      0.000     0.086    0.0000     0.000
   01/01/1998 04:04:00      0.000     0.086    0.0000     0.000
   01/01/1998 04:05:00      0.000     0.086    0.0000     0.000
   01/01/1998 04:06:00      0.000     0.000    0.0000     0.000
   01/01/1998 04:07:00      0.000     0.000    0.0000     0.000
   01/01/1998 04:08:00      0.000     0.000    0.0000     0.000
   01/01/1998 04:09:00      0.000     0.000    0.0000     0.000
   01/01/1998 04:10:00      0.000     0.000    0.0000     0.000
   01/01/1998 04:11:00      0.000     0.000    0.0000     0.000
   01/01/1998 04:12:00      0.000     0.000    0.0000     0.000
   01/01/1998 04:13:00      0.000     0.000    0.0000     0.000
   01/01/1998 04:14:00      0.000     0.000    0.0000     0.000
   01/01/1998 04:15:00      0.000     0.000    0.0000     0.000
   01/01/1998 04:16:00      0.000     0.000    0.0000     0.000
   01/01/1998 04:17:00      0.000     0.000    0.0000     0.000
   01/01/1998 04:18:00      0.000     0.000    0.0000     0.000
   01/01/1998 04:19:00      0.000     0.000    0.0000     0.000
   01/01/1998 04:20:00      0.000     0.000    0.0000     0.000
   01/01/1998 04:21:00      0.000     0.000    0.0000     0.000
   01/01/1998 04:22:00      0.000     0.000    0.0000     0.000
   01/01/1998 04:23:00      0.000     0.000    0.0000     0.000
   01/01/1998 04:24:00      0.000     0.000    0.0000     0.000
   01/01/1998 04:25:00      0.000     0.000    0.0000     0.000
   01/01/1998 04:26:00      0.000     0.000    0.0000     0.000
   01/01/1998 04:27:00      0.000     0.000    0.0000     0.000
   01/01/1998 04:28:00      0.000     0.000    0.0000     0.000
   01/01/1998 04:29:00      0.000     0.000    0.0000     0.000
   01/01/1998 04:30:00      0.000     0.000    0.0000     0.000
   01/01/1998 04:31:00      0.000     0.000    0.0000     0.000
   01/01/1998 04:32:00      0.000     0.000    0.0000     0.000
   01/01/1998 04:33:00      0.000     0.000    0.0000     0.000
   01/01/1998 04:34:00      0.000     0.000    0.0000     0.000
   01/01/1998 04:35:00      0.000     0.000    0.0000     0.000
   01/01/1998 04:36:00      0.000     0.000    0.0000     0.000
   01/01/1998 04:37:00      0.000     0.000    0.0000     0.000
   01/01/1998 04:38:00      0.000     0.000    0.0000     0.000
   01/01/1998 04:39:00      0.000     0.000    0.0000     0.000
   01/01/1998 04:40:00      0.000     0.000    0.0000     0.000
   01/01/1998 04:41:00      0.000     0.000    0.0000     0.000
   01/01/1998 04:42:00      0.000     0.000    0.0000     0.000
   01/01/1998 04:43:00      0.000     0.000    0.0000     0.000
   01/01/1998 04:44:00      0.000     0.000    0.0000     0.000
   01/01/1998 04:45:00      0.000     0.000    0.0000     0.000
   01/01/1998 04:46:00      0.000     0.000    0.0000     0.000
   01/01/1998 04:47:00      0.000     0.000    0.0000     0.000
   01/01/1998 04:48:00      0.000     0.000    0.0000     0.000
   01/01/1998 04:49:00      0.000     0.000    0.0000     0.000
   01/01/1998 04:50:00      0.000     0.000    0.0000     0.000
   01/01/1998 04:51:00      0.000     0.000    0.0000     0.000
   01/01/1998 04:52:00      0.000     0.000    0.0000     0.000
   01/01/1998 04:53:00      0.000     0.000    0.0000     0.000
   01/01/1998 04:54:00      0.000     0.000    0.0000     0.000
   01/01/1998 04:55:00      0.000     0.000    0.0000     0.000
   01/01/1998 04:56:00      0.000     0.000    0.0000     0.000
   01/01/1998 04:57:00      0.000     0.000    0.0000     0.000
   01/01/1998 04:58:00      0.000     0.000    0.0000     0.000
   01/01/1998 04:59:00      0.000     0.000    0.0000     0.000
   01/01/1998 05:00:00      0.000     0.000    0.0000     0.000
   01/01/1998 05:01:00      0.000     0.000    0.0000     0.000
   01/01/1998 05:02:00      0.000     0.000    0.0000     0.000
   01/01/1998 05:03:00      0.000     0.000    0.0000     0.000
   01/01/1998 05:04:00      0.000     0.000    0.0000     0.000
   01/01/1998 05:05:00      0.000     0.000    0.0000     0.000
   01/01/1998 05:06:00      0.000     0.000    0.0000     0.000
   01/01/1998 05:07:00      0.000     0.000    0.0000     0.000
   01/01/1998 05:08:00      0.000     0.000    0.0000     0.000
   01/01/1998 05:09:00      0.000     0.000    0.0000     0.000
   01/01/1998 05:10:00      0.000     0.000    0.0000     0.000
   01/01/1998 05:11:00      0.000     0.000    0.0000     0.000
   01/01/1998 05:12:00      0.000     0.000    0.0000     0.000
   01/01/1998 05:13:00      0.000     0.000    0.0000     0.000
   01/01/1998 05:14:00      0.000     0.000    0.0000     0.000
   01/01/1998 05:15:00      0.000     0.000    0.0000     0.000
   01/01/1998 05:16:00      0.000     0.000    0.0000     0.000
   01/01/1998 05:17:00      0.000     0.000    0.0000     0.000
   01/01/1998 05:18:00      0.000     0.000    0.0000     0.000
   01/01/1998 05:19:00      0.000     0.000    0.0000     0.000
   01/01/1998 05:20:00      0.000     0.000    0.0000     0.000
   01/01/1998 05:21:00      0.000     0.000    0.0000     0.000
   01/01/1998 05:22:00      0.000     0.000    0.0000     0.000
   01/01/1998 05:23:00      0.000     0.000    0.0000     0.000
   01/01/1998 05:24:00      0.000     0.000    0.0000     0.000
   01/01/1998 05:25:00      0.000     0.000    0.0000     0.000
   01/01/1998 05:26:00      0.000     0.000    0.0000     0.000
   01/01/1998 05:27:00      0.000     0.000    0.0000     0.000
   01/01/1998 05:28:00      0.000     0.000    0.0000     0.000
   01/01/1998 05:29:00      0.000     0.000    0.0000     0.000
   01/01/1998 05:30:00      0.000     0.000    0.0000     0.000
   01/01/1998 05:31:00      0.000     0.000    0.0000     0.000
   01/01/1998 05:32:00      0.000     0.000    0.0000     0.000
   01/01/1998 05:33:00      0.000     0.000    0.0000     0.000
   01/01/1998 05:34:00      0.000     0.000    0.0000     0.000
   01/01/1998 05:35:00      0.000     0.000    0.0000     0.000
   01/01/1998 05:36:00      0.000     0.000    0.0000     0.000
   01/01/1998 05:37:00      0.000     0.000    0.0000     0.000
   01/01/1998 05:38:00      0.000     0.000    0.0000     0.000
   01/01/1998 05:39:00      0.000     0.000    0.0000     0.000
   01/01/1998 05:40:00      0.000     0.000    0.0000     0.000
   01/01/1998 05:41:00      0.000     0.000    0.0000     0.000
   01/01/1998 05:42:00      0.000     0.000    0.0000     0.000
   01/01/1998 05:43:00      0.000     0.000    0.0000     0.000
   01/01/1998 05:44:00      0.000     0.000    0.0000     0.000
   01/01/1998 05:45:00      0.000     0.000    0.0000     0.000
   01/01/1998 05:46:00      0.000     0.000    0.0000     0.000
   01/01/1998 05:47:00      0.000     0.000    0.0000     0.000
   01/01/1998 05:48:00      0.000     0.000    0.0000     0.000
   01/01/1998 05:49:00      0.000     0.000    0.0000     0.000
   01/01/1998 05:50:00      0.000     0.000    0.0000     0.000
   01/01/1998 05:51:00      0.000     0.000    0.0000     0.000
   01/01/1998 05:52:00      0.000     0.000    0.0000     0.000
   01/01/1998 05:53:00      0.000     0.000    0.0000     0.000
   01/01/1998 05:54:00      0.000     0.000    0.0000     0.000
   01/01/1998 05:55:00      0.000     0.000    0.0000     0.000
   01/01/1998 05:56:00      0.000     0.000    0.0000     0.000
   01/01/1998 05:57:00      0.000     0.000    0.0000     0.000
   01/01/1998 05:58:00      0.000     0.000    0.0000     0.000
   01/01/1998 05:59:00      0.000     0.000    0.0000     0.000
   01/01/1998 06:00:00      0.000     0.000    0.0000     0.000
  
  
  <<< Subcatchment S2 >>>
  -------------------------------------------------------------
  Date        Time        Precip.    Losses    Runoff       TSS
                            in/hr     in/hr       CFS      MG/L
  -------------------------------------------------------------
   01/01/1998 00:01:00      3.480     1.288    0.6680     0.000
   01/01/1998 00:02:00      3.480     1.288    3.4327     0.000
   01/01/1998 00:03:00      3.480     1.205    6.5769     0.000
   01/01/1998 00:04:00      3.480     1.089    8.5669     0.000
   01/01/1998 00:05:00      3.960     1.089    9.5943     0.000
   01/01/1998 00:06:00      3.960     0.891   10.8902     0.000
   01/01/1998 00:07:00      3.960     0.808   11.4781     0.000
   01/01/1998 00:08:00      3.960     0.732   11.7341     0.000
   01/01/1998 00:09:00      3.960     0.665   11.8436     0.000
   01/01/1998 00:10:00      4.560     0.665   11.8902     0.000
   01/01/1998 00:11:00      4.560     0.550   12.9658     0.000
   01/01/1998 00:12:00      4.560     0.501   13.4192     0.000
   01/01/1998 00:13:00      4.560     0.457   13.6201     0.000
   01/01/1998 00:14:00      4.560     0.418   13.9322     0.000
   01/01/1998 00:15:00      7.680     0.418   14.3784     0.000
   01/01/1998 00:16:00      7.680     0.351   21.4679     0.000
   01/01/1998 00:17:00      7.680     0.322   25.1621     0.000
   01/01/1998 00:18:00      7.680     0.297   27.3960     0.000
   01/01/1998 00:19:00      7.680     0.274   29.0292     0.000
   01/01/1998 00:20:00      9.720     0.274   30.3484     0.000
   01/01/1998 00:21:00      9.720     0.235   36.4648     0.000
   01/01/1998 00:22:00      9.720     0.218   39.3975     0.000
   01/01/1998 00:23:00      9.720     0.204   41.1007     0.000
   01/01/1998 00:24:00      9.720     0.190   42.2604     0.000
   01/01/1998 00:25:00     18.840     0.190   43.1147     0.000
   01/01/1998 00:26:00     18.840     0.168   68.9704     0.000
   01/01/1998 00:27:00     18.840     0.158   78.2465     0.000
   01/01/1998 00:28:00     18.840     0.149   82.3416     0.000
   01/01/1998 00:29:00     18.840     0.142   84.7137     0.000
   01/01/1998 00:30:00     34.200     0.142   86.2627     0.000
   01/01/1998 00:31:00     34.200     0.128  135.8012     0.000
   01/01/1998 00:32:00     34.200     0.123  149.4961     0.000
   01/01/1998 00:33:00     34.200     0.118  155.1614     0.000
   01/01/1998 00:34:00     34.200     0.113  158.3080     0.000
   01/01/1998 00:35:00     14.160     0.113  160.1804     0.000
   01/01/1998 00:36:00     14.160     0.106   97.6752     0.000
   01/01/1998 00:37:00     14.160     0.102   82.1946     0.000
   01/01/1998 00:38:00     14.160     0.100   76.0039     0.000
   01/01/1998 00:39:00     14.160     0.097   72.8151     0.000
   01/01/1998 00:40:00      8.520     0.097   70.9239     0.000
   01/01/1998 00:41:00      8.520     0.092   54.1388     0.000
   01/01/1998 00:42:00      8.520     0.091   48.1448     0.000
   01/01/1998 00:43:00      8.520     0.089   45.3232     0.000
   01/01/1998 00:44:00      8.520     0.087   43.7366     0.000
   01/01/1998 00:45:00      5.040     0.087   42.7351     0.000
   01/01/1998 00:46:00      5.040     0.085   33.4721     0.000
   01/01/1998 00:47:00      5.040     0.084   29.6343     0.000
   01/01/1998 00:48:00      5.040     0.083   27.6809     0.000
   01/01/1998 00:49:00      5.040     0.082   26.5386     0.000
   01/01/1998 00:50:00      4.200     0.082   25.8002     0.000
   01/01/1998 00:51:00      4.200     0.080   23.4230     0.000
   01/01/1998 00:52:00      4.200     0.080   22.2078     0.000
   01/01/1998 00:53:00      4.200     0.079   21.5023     0.000
   01/01/1998 00:54:00      4.200     0.079   21.0494     0.000
   01/01/1998 00:55:00      3.600     0.079   20.7358     0.000
   01/01/1998 00:56:00      3.600     0.078   19.2400     0.000
   01/01/1998 00:57:00      3.600     0.077   18.4637     0.000
   01/01/1998 00:58:00      3.600     0.077   18.0133     0.000
   01/01/1998 00:59:00      3.600     0.077   17.7256     0.000
   01/01/1998 01:00:00      2.400     0.077   17.5271     0.000
   01/01/1998 01:01:00      2.400     0.076   14.9919     0.000
   01/01/1998 01:02:00      2.400     0.076   13.7014     0.000
   01/01/1998 01:03:00      2.400     0.076   12.9642     0.000
   01/01/1998 01:04:00      2.400     0.076   12.5040     0.000
   01/01/1998 01:05:00      2.280     0.076   12.1951     0.000
   01/01/1998 01:06:00      2.280     0.075   11.7555     0.000
   01/01/1998 01:07:00      2.280     0.075   11.4718     0.000
   01/01/1998 01:08:00      2.280     0.075   11.2760     0.000
   01/01/1998 01:09:00      2.280     0.075   11.1333     0.000
   01/01/1998 01:10:00      2.160     0.075   11.0248     0.000
   01/01/1998 01:11:00      2.160     0.075   10.7252     0.000
   01/01/1998 01:12:00      2.160     0.075   10.5385     0.000
   01/01/1998 01:13:00      2.160     0.075   10.4140     0.000
   01/01/1998 01:14:00      2.160     0.075   10.3258     0.000
   01/01/1998 01:15:00      2.040     0.075   10.2601     0.000
   01/01/1998 01:16:00      2.040     0.074    9.9986     0.000
   01/01/1998 01:17:00      2.040     0.074    9.8403     0.000
   01/01/1998 01:18:00      2.040     0.074    9.7380     0.000
   01/01/1998 01:19:00      2.040     0.074    9.6677     0.000
   01/01/1998 01:20:00      2.040     0.074    9.6167     0.000
   01/01/1998 01:21:00      2.040     0.074    9.5779     0.000
   01/01/1998 01:22:00      2.040     0.074    9.5473     0.000
   01/01/1998 01:23:00      2.040     0.074    9.5227     0.000
   01/01/1998 01:24:00      2.040     0.074    9.5025     0.000
   01/01/1998 01:25:00      1.920     0.074    9.4858     0.000
   01/01/1998 01:26:00      1.920     0.074    9.2654     0.000
   01/01/1998 01:27:00      1.920     0.074    9.1367     0.000
   01/01/1998 01:28:00      1.920     0.074    9.0571     0.000
   01/01/1998 01:29:00      1.920     0.074    9.0050     0.000
   01/01/1998 01:30:00      1.800     0.074    8.9687     0.000
   01/01/1998 01:31:00      1.800     0.074    8.7393     0.000
   01/01/1998 01:32:00      1.800     0.074    8.6026     0.000
   01/01/1998 01:33:00      1.800     0.074    8.5165     0.000
   01/01/1998 01:34:00      1.800     0.074    8.4591     0.000
   01/01/1998 01:35:00      1.800     0.074    8.4187     0.000
   01/01/1998 01:36:00      1.800     0.074    8.3887     0.000
   01/01/1998 01:37:00      1.800     0.074    8.3655     0.000
   01/01/1998 01:38:00      1.800     0.074    8.3471     0.000
   01/01/1998 01:39:00      1.800     0.074    8.3320     0.000
   01/01/1998 01:40:00      1.680     0.074    8.3196     0.000
   01/01/1998 01:41:00      1.680     0.074    8.1105     0.000
   01/01/1998 01:42:00      1.680     0.074    7.9862     0.000
   01/01/1998 01:43:00      1.680     0.074    7.9085     0.000
   01/01/1998 01:44:00      1.680     0.074    7.8573     0.000
   01/01/1998 01:45:00      1.680     0.074    7.8217     0.000
   01/01/1998 01:46:00      1.680     0.074    7.7957     0.000
   01/01/1998 01:47:00      1.680     0.074    7.7758     0.000
   01/01/1998 01:48:00      1.680     0.074    7.7601     0.000
   01/01/1998 01:49:00      1.680     0.074    7.7473     0.000
   01/01/1998 01:50:00      1.560     0.074    7.7368     0.000
   01/01/1998 01:51:00      1.560     0.074    7.5335     0.000
   01/01/1998 01:52:00      1.560     0.074    7.4115     0.000
   01/01/1998 01:53:00      1.560     0.074    7.3347     0.000
   01/01/1998 01:54:00      1.560     0.074    7.2839     0.000
   01/01/1998 01:55:00      1.560     0.074    7.2485     0.000
   01/01/1998 01:56:00      1.560     0.074    7.2227     0.000
   01/01/1998 01:57:00      1.560     0.074    7.2030     0.000
   01/01/1998 01:58:00      1.560     0.074    7.1874     0.000
   01/01/1998 01:59:00      1.560     0.074    7.1748     0.000
   01/01/1998 02:00:00      0.000     0.074    7.1643     0.000
   01/01/1998 02:01:00      0.000     0.074    4.8486     0.000
   01/01/1998 02:02:00      0.000     0.074    3.5621     0.000
   01/01/1998 02:03:00      0.000     0.074    2.7551     0.000
   01/01/1998 02:04:00      0.000     0.074    2.2048     0.000
   01/01/1998 02:05:00      0.000     0.074    1.8066     0.000
   01/01/1998 02:06:00      0.000     0.074    1.5056     0.000
   01/01/1998 02:07:00      0.000     0.074    1.2706     0.000
   01/01/1998 02:08:00      0.000     0.074    1.0825     0.000
   01/01/1998 02:09:00      0.000     0.074    0.9288     0.000
   01/01/1998 02:10:00      0.000     0.074    0.8013     0.000
   01/01/1998 02:11:00      0.000     0.074    0.6942     0.000
   01/01/1998 02:12:00      0.000     0.074    0.6032     0.000
   01/01/1998 02:13:00      0.000     0.074    0.5252     0.000
   01/01/1998 02:14:00      0.000     0.074    0.4579     0.000
   01/01/1998 02:15:00      0.000     0.074    0.3993     0.000
   01/01/1998 02:16:00      0.000     0.074    0.3482     0.000
   01/01/1998 02:17:00      0.000     0.074    0.3033     0.000
   01/01/1998 02:18:00      0.000     0.074    0.2637     0.000
   01/01/1998 02:19:00      0.000     0.074    0.2288     0.000
   01/01/1998 02:20:00      0.000     0.074    0.1978     0.000
   01/01/1998 02:21:00      0.000     0.074    0.1703     0.000
   01/01/1998 02:22:00      0.000     0.074    0.1460     0.000
   01/01/1998 02:23:00      0.000     0.074    0.1243     0.000
   01/01/1998 02:24:00      0.000     0.074    0.1052     0.000
   01/01/1998 02:25:00      0.000     0.074    0.0882     0.000
   01/01/1998 02:26:00      0.000     0.074    0.0733     0.000
   01/01/1998 02:27:00      0.000     0.074    0.0604     0.000
   01/01/1998 02:28:00      0.000     0.074    0.0492     0.000
   01/01/1998 02:29:00      0.000     0.074    0.0397     0.000
   01/01/1998 02:30:00      0.000     0.074    0.0319     0.000
   01/01/1998 02:31:00      0.000     0.074    0.0259     0.000
   01/01/1998 02:32:00      0.000     0.074    0.0219     0.000
   01/01/1998 02:33:00      0.000     0.074    0.0203     0.000
   01/01/1998 02:34:00      0.000     0.074    0.0190     0.000
   01/01/1998 02:35:00      0.000     0.074    0.0178     0.000
   01/01/1998 02:36:00      0.000     0.074    0.0167     0.000
   01/01/1998 02:37:00      0.000     0.074    0.0157     0.000
   01/01/1998 02:38:00      0.000     0.074    0.0148     0.000
   01/01/1998 02:39:00      0.000     0.074    0.0139     0.000
   01/01/1998 02:40:00      0.000     0.074    0.0132     0.000
   01/01/1998 02:41:00      0.000     0.074    0.0125     0.000
   01/01/1998 02:42:00      0.000     0.074    0.0118     0.000
   01/01/1998 02:43:00      0.000     0.074    0.0112     0.000
   01/01/1998 02:44:00      0.000     0.074    0.0106     0.000
   01/01/1998 02:45:00      0.000     0.074    0.0101     0.000
   01/01/1998 02:46:00      0.000     0.074    0.0096     0.000
   01/01/1998 02:47:00      0.000     0.074    0.0091     0.000
   01/01/1998 02:48:00      0.000     0.074    0.0087     0.000
   01/01/1998 02:49:00      0.000     0.074    0.0083     0.000
   01/01/1998 02:50:00      0.000     0.074    0.0079     0.000
   01/01/1998 02:51:00      0.000     0.074    0.0076     0.000
   01/01/1998 02:52:00      0.000     0.074    0.0072     0.000
   01/01/1998 02:53:00      0.000     0.074    0.0069     0.000
   01/01/1998 02:54:00      0.000     0.074    0.0066     0.000
   01/01/1998 02:55:00      0.000     0.074    0.0063     0.000
   01/01/1998 02:56:00      0.000     0.074    0.0061     0.000
   01/01/1998 02:57:00      0.000     0.074    0.0058     0.000
   01/01/1998 02:58:00      0.000     0.074    0.0056     0.000
   01/01/1998 02:59:00      0.000     0.074    0.0054     0.000
   01/01/1998 03:00:00      0.000     0.074    0.0052     0.000
   01/01/1998 03:01:00      0.000     0.074    0.0050     0.000
   01/01/1998 03:02:00      0.000     0.074    0.0048     0.000
   01/01/1998 03:03:00      0.000     0.074    0.0000     0.000
   01/01/1998 03:04:00      0.000     0.074    0.0000     0.000
   01/01/1998 03:05:00      0.000     0.074    0.0000     0.000
   01/01/1998 03:06:00      0.000     0.074    0.0000     0.000
   01/01/1998 03:07:00      0.000     0.074    0.0000     0.000
   01/01/1998 03:08:00      0.000     0.074    0.0000     0.000
   01/01/1998 03:09:00      0.000     0.074    0.0000     0.000
   01/01/1998 03:10:00      0.000     0.074    0.0000     0.000
   01/01/1998 03:11:00      0.000     0.074    0.0000     0.000
   01/01/1998 03:12:00      0.000     0.074    0.0000     0.000
   01/01/1998 03:13:00      0.000     0.074    0.0000     0.000
   01/01/1998 03:14:00      0.000     0.074    0.0000     0.000
   01/01/1998 03:15:00      0.000     0.074    0.0000     0.000
   01/01/1998 03:16:00      0.000     0.074    0.0000     0.000
   01/01/1998 03:17:00      0.000     0.074    0.0000     0.000
   01/01/1998 03:18:00      0.000     0.074    0.0000     0.000
   01/01/1998 03:19:00      0.000     0.074    0.0000     0.000
   01/01/1998 03:20:00      0.000     0.074    0.0000     0.000
   01/01/1998 03:21:00      0.000     0.074    0.0000     0.000
   01/01/1998 03:22:00      0.000     0.074    0.0000     0.000
   01/01/1998 03:23:00      0.000     0.074    0.0000     0.000
   01/01/1998 03:24:00      0.000     0.074    0.0000     0.000
   01/01/1998 03:25:00      0.000     0.074    0.0000     0.000
   01/01/1998 03:26:00      0.000     0.074    0.0000     0.000
   01/01/1998 03:27:00      0.000     0.074    0.0000     0.000
   01/01/1998 03:28:00      0.000     0.074    0.0000     0.000
   01/01/1998 03:29:00      0.000     0.074    0.0000     0.000
   01/01/1998 03:30:00      0.000     0.074    0.0000     0.000
   01/01/1998 03:31:00      0.000     0.074    0.0000     0.000
   01/01/1998 03:32:00      0.000     0.074    0.0000     0.000
   01/01/1998 03:33:00      0.000     0.074    0.0000     0.000
   01/01/1998 03:34:00      0.000     0.074    0.0000     0.000
   01/01/1998 03:35:00      0.000     0.074    0.0000     0.000
   01/01/1998 03:36:00      0.000     0.074    0.0000     0.000
   01/01/1998 03:37:00      0.000     0.074    0.0000     0.000
   01/01/1998 03:38:00      0.000     0.074    0.0000     0.000
   01/01/1998 03:39:00      0.000     0.074    0.0000     0.000
   01/01/1998 03:40:00      0.000     0.074    0.0000     0.000
   01/01/1998 03:41:00      0.000     0.074    0.0000     0.000
   01/01/1998 03:42:00      0.000     0.074    0.0000     0.000
   01/01/1998 03:43:00      0.000     0.074    0.0000     0.000
   01/01/1998 03:44:00      0.000     0.074    0.0000     0.000
   01/01/1998 03:45:00      0.000     0.074    0.0000     0.000
   01/01/1998 03:46:00      0.000     0.074    0.0000     0.000
   01/01/1998 03:47:00      0.000     0.074    0.0000     0.000
   01/01/1998 03:48:00      0.000     0.074    0.0000     0.000
   01/01/1998 03:49:00      0.000     0.074    0.0000     0.000
   01/01/1998 03:50:00      0.000     0.074    0.0000     0.000
   01/01/1998 03:51:00      0.000     0.074    0.0000     0.000
   01/01/1998 03:52:00      0.000     0.074    0.0000     0.000
   01/01/1998 03:53:00      0.000     0.074    0.0000     0.000
   01/01/1998 03:54:00      0.000     0.074    0.0000     0.000
   01/01/1998 03:55:00      0.000     0.074    0.0000     0.000
   01/01/1998 03:56:00      0.000     0.074    0.0000     0.000
   01/01/1998 03:57:00      0.000     0.074    0.0000     0.000
   01/01/1998 03:58:00      0.000     0.074    0.0000     0.000
   01/01/1998 03:59:00      0.000     0.074    0.0000     0.000
   01/01/1998 04:00:00      0.000     0.074    0.0000     0.000
   01/01/1998 04:01:00      0.000     0.074    0.0000     0.000
   01/01/1998 04:02:00      0.000     0.022    0.0000     0.000
   01/01/1998 04:03:00      0.000     0.000    0.0000     0.000
   01/01/1998 04:04:00      0.000     0.000    0.0000     0.000
   01/01/1998 04:05:00      0.000     0.000    0.0000     0.000
   01/01/1998 04:06:00      0.000     0.000    0.0000     0.000
   01/01/1998 04:07:00      0.000     0.000    0.0000     0.000
   01/01/1998 04:08:00      0.000     0.000    0.0000     0.000
   01/01/1998 04:09:00      0.000     0.000    0.0000     0.000
   01/01/1998 04:10:00      0.000     0.000    0.0000     0.000
   01/01/1998 04:11:00      0.000     0.000    0.0000     0.000
   01/01/1998 04:12:00      0.000     0.000    0.0000     0.000
   01/01/1998 04:13:00      0.000     0.000    0.0000     0.000
   01/01/1998 04:14:00      0.000     0.000    0.0000     0.000
   01/01/1998 04:15:00      0.000     0.000    0.0000     0.000
   01/01/1998 04:16:00      0.000     0.000    0.0000     0.000
   01/01/1998 04:17:00      0.000     0.000    0.0000     0.000
   01/01/1998 04:18:00      0.000     0.000    0.0000     0.000
   01/01/1998 04:19:00      0.000     0.000    0.0000     0.000
   01/01/1998 04:20:00      0.000     0.000    0.0000     0.000
   01/01/1998 04:21:00      0.000     0.000    0.0000     0.000
   01/01/1998 04:22:00      0.000     0.000    0.0000     0.000
   01/01/1998 04:23:00      0.000     0.000    0.0000     0.000
   01/01/1998 04:24:00      0.000     0.000    0.0000     0.000
   01/01/1998 04:25:00      0.000     0.000    0.0000     0.000
   01/01/1998 04:26:00      0.000     0.000    0.0000     0.000
   01/01/1998 04:27:00      0.000     0.000    0.0000     0.000
   01/01/1998 04:28:00      0.000     0.000    0.0000     0.000
   01/01/1998 04:29:00      0.000     0.000    0.0000     0.000
   01/01/1998 04:30:00      0.000     0.000    0.0000     0.000
   01/01/1998 04:31:00      0.000     0.000    0.0000     0.000
   01/01/1998 04:32:00      0.000     0.000    0.0000     0.000
   01/01/1998 04:33:00      0.000     0.000    0.0000     0.000
   01/01/1998 04:34:00      0.000     0.000    0.0000     0.000
   01/01/1998 04:35:00      0.000     0.000    0.0000     0.000
   01/01/1998 04:36:00      0.000     0.000    0.0000     0.000
   01/01/1998 04:37:00      0.000     0.000    0.0000     0.000
   01/01/1998 04:38:00      0.000     0.000    0.0000     0.000
   01/01/1998 04:39:00      0.000     0.000    0.0000     0.000
   01/01/1998 04:40:00      0.000     0.000    0.0000     0.000
   01/01/1998 04:41:00      0.000     0.000    0.0000     0.000
   01/01/1998 04:42:00      0.000     0.000    0.0000     0.000
   01/01/1998 04:43:00      0.000     0.000    0.0000     0.000
   01/01/1998 04:44:00      0.000     0.000    0.0000     0.000
   01/01/1998 04:45:00      0.000     0.000    0.0000     0.000
   01/01/1998 04:46:00      0.000     0.000    0.0000     0.000
   01/01/1998 04:47:00      0.000     0.000    0.0000     0.000
   01/01/1998 04:48:00      0.000     0.000    0.0000     0.000
   01/01/1998 04:49:00      0.000     0.000    0.0000     0.000
   01/01/1998 04:50:00      0.000     0.000    0.0000     0.000
   01/01/1998 04:51:00      0.000     0.000    0.0000     0.000
   01/01/1998 04:52:00      0.000     0.000    0.0000     0.000
   01/01/1998 04:53:00      0.000     0.000    0.0000     0.000
   01/01/1998 04:54:00      0.000     0.000    0.0000     0.000
   01/01/1998 04:55:00      0.000     0.000    0.0000     0.000
   01/01/1998 04:56:00      0.000     0.000    0.0000     0.000
   01/01/1998 04:57:00      0.000     0.000    0.0000     0.000
   01/01/1998 04:58:00      0.000     0.000    0.0000     0.000
   01/01/1998 04:59:00      0.000     0.000    0.0000     0.000
   01/01/1998 05:00:00      0.000     0.000    0.0000     0.000
   01/01/1998 05:01:00      0.000     0.000    0.0000     0.000
   01/01/1998 05:02:00      0.000     0.000    0.0000     0.000
   01/01/1998 05:03:00      0.000     0.000    0.0000     0.000
   01/01/1998 05:04:00      0.000     0.000    0.0000     0.000
   01/01/1998 05:05:00      0.000     0.000    0.0000     0.000
   01/01/1998 05:06:00      0.000     0.000    0.0000     0.000
   01/01/1998 05:07:00      0.000     0.000    0.0000     0.000
   01/01/1998 05:08:00      0.000     0.000    0.0000     0.000
   01/01/1998 05:09:00      0.000     0.000    0.0000     0.000
   01/01/1998 05:10:00      0.000     0.000    0.0000     0.000
   01/01/1998 05:11:00      0.000     0.000    0.0000     0.000
   01/01/1998 05:12:00      0.000     0.000    0.0000     0.000
   01/01/1998 05:13:00      0.000     0.000    0.0000     0.000
   01/01/1998 05:14:00      0.000     0.000    0.0000     0.000
   01/01/1998 05:15:00      0.000     0.000    0.0000     0.000
   01/01/1998 05:16:00      0.000     0.000    0.0000     0.000
   01/01/1998 05:17:00      0.000     0.000    0.0000     0.000
   01/01/1998 05:18:00      0.000     0.000    0.0000     0.000
   01/01/1998 05:19:00      0.000     0.000    0.0000     0.000
   01/01/1998 05:20:00      0.000     0.000    0.0000     0.000
   01/01/1998 05:21:00      0.000     0.000    0.0000     0.000
   01/01/1998 05:22:00      0.000     0.000    0.0000     0.000
   01/01/1998 05:23:00      0.000     0.000    0.0000     0.000
   01/01/1998 05:24:00      0.000     0.000    0.0000     0.000
   01/01/1998 05:25:00      0.000     0.000    0.0000     0.000
   01/01/1998 05:26:00      0.000     0.000    0.0000     0.000
   01/01/1998 05:27:00      0.000     0.000    0.0000     0.000
   01/01/1998 05:28:00      0.000     0.000    0.0000     0.000
   01/01/1998 05:29:00      0.000     0.000    0.0000     0.000
   01/01/1998 05:30:00      0.000     0.000    0.0000     0.000
   01/01/1998 05:31:00      0.000     0.000    0.0000     0.000
   01/01/1998 05:32:00      0.000     0.000    0.0000     0.000
   01/01/1998 05:33:00      0.000     0.000    0.0000     0.000
   01/01/1998 05:34:00      0.000     0.000    0.0000     0.000
   01/01/1998 05:35:00      0.000     0.000    0.0000     0.000
   01/01/1998 05:36:00      0.000     0.000    0.0000     0.000
   01/01/1998 05:37:00      0.000     0.000    0.0000     0.000
   01/01/1998 05:38:00      0.000     0.000    0.0000     0.000
   01/01/1998 05:39:00      0.000     0.000    0.0000     0.000
   01/01/1998 05:40:00      0.000     0.000    0.0000     0.000
   01/01/1998 05:41:00      0.000     0.000    0.0000     0.000
   01/01/1998 05:42:00      0.000     0.000    0.0000     0.000
   01/01/1998 05:43:00      0.000     0.000    0.0000     0.000
   01/01/1998 05:44:00      0.000     0.000    0.0000     0.000
   01/01/1998 05:45:00      0.000     0.000    0.0000     0.000
   01/01/1998 05:46:00      0.000     0.000    0.0000     0.000
   01/01/1998 05:47:00      0.000     0.000    0.0000     0.000
   01/01/1998 05:48:00      0.000     0.000    0.0000     0.000
   01/01/1998 05:49:00      0.000     0.000    0.0000     0.000
   01/01/1998 05:50:00      0.000     0.000    0.0000     0.000
   01/01/1998 05:51:00      0.000     0.000    0.0000     0.000
   01/01/1998 05:52:00      0.000     0.000    0.0000     0.000
   01/01/1998 05:53:00      0.000     0.000    0.0000     0.000
   01/01/1998 05:54:00      0.000     0.000    0.0000     0.000
   01/01/1998 05:55:00      0.000     0.000    0.0000     0.000
   01/01/1998 05:56:00      0.000     0.000    0.0000     0.000
   01/01/1998 05:57:00      0.000     0.000    0.0000     0.000
   01/01/1998 05:58:00      0.000     0.000    0.0000     0.000
   01/01/1998 05:59:00      0.000     0.000    0.0000     0.000
   01/01/1998 06:00:00      0.000     0.000    0.0000     0.000
  
  
  <<< Subcatchment S3 >>>
  -------------------------------------------------------------
  Date        Time        Precip.    Losses    Runoff       TSS
                            in/hr     in/hr       CFS      MG/L
  -------------------------------------------------------------
   01/01/1998 00:01:00      3.480     2.105    0.6034     0.000
   01/01/1998 00:02:00      3.480     2.105    2.8098     0.000
   01/01/1998 00:03:00      3.480     1.971    4.4140     0.000
   01/01/1998 00:04:00      3.480     1.781    4.9665     0.000
   01/01/1998 00:05:00      3.960     1.781    5.1249     0.000
   01/01/1998 00:06:00      3.960     1.458    5.6975     0.000
   01/01/1998 00:07:00      3.960     1.320    5.8481     0.000
   01/01/1998 00:08:00      3.960     1.197    5.8863     0.000
   01/01/1998 00:09:00      3.960     1.087    5.8959     0.000
   01/01/1998 00:10:00      4.560     1.087    5.8983     0.000
   01/01/1998 00:11:00      4.560     0.899    6.5780     0.000
   01/01/1998 00:12:00      4.560     0.819    6.7427     0.000
   01/01/1998 00:13:00      4.560     0.747    6.7978     0.000
   01/01/1998 00:14:00      4.560     0.683    7.0676     0.000
   01/01/1998 00:15:00      7.680     0.683    7.5325     0.000
   01/01/1998 00:16:00      7.680     0.573   12.5891     0.000
   01/01/1998 00:17:00      7.680     0.527   14.9270     0.000
   01/01/1998 00:18:00      7.680     0.485   16.7472     0.000
   01/01/1998 00:19:00      7.680     0.448   18.4298     0.000
   01/01/1998 00:20:00      9.720     0.448   19.9764     0.000
   01/01/1998 00:21:00      9.720     0.384   24.8487     0.000
   01/01/1998 00:22:00      9.720     0.357   27.2487     0.000
   01/01/1998 00:23:00      9.720     0.333   29.0130     0.000
   01/01/1998 00:24:00      9.720     0.311   30.4386     0.000
   01/01/1998 00:25:00     18.840     0.311   31.5928     0.000
   01/01/1998 00:26:00     18.840     0.274   49.9776     0.000
   01/01/1998 00:27:00     18.840     0.258   56.1494     0.000
   01/01/1998 00:28:00     18.840     0.244   60.1264     0.000
   01/01/1998 00:29:00     18.840     0.232   63.0465     0.000
   01/01/1998 00:30:00     34.200     0.232   65.1759     0.000
   01/01/1998 00:31:00     34.200     0.210   99.7506     0.000
   01/01/1998 00:32:00     34.200     0.201  110.1335     0.000
   01/01/1998 00:33:00     34.200     0.193  116.6162     0.000
   01/01/1998 00:34:00     34.200     0.185  120.8824     0.000
   01/01/1998 00:35:00     14.160     0.185  123.6371     0.000
   01/01/1998 00:36:00     14.160     0.173   81.0372     0.000
   01/01/1998 00:37:00     14.160     0.168   70.2918     0.000
   01/01/1998 00:38:00     14.160     0.163   64.5131     0.000
   01/01/1998 00:39:00     14.160     0.158   60.8382     0.000
   01/01/1998 00:40:00      8.520     0.158   58.3880     0.000
   01/01/1998 00:41:00      8.520     0.151   45.6282     0.000
   01/01/1998 00:42:00      8.520     0.148   41.0805     0.000
   01/01/1998 00:43:00      8.520     0.145   38.4215     0.000
   01/01/1998 00:44:00      8.520     0.143   36.6103     0.000
   01/01/1998 00:45:00      5.040     0.143   35.3179     0.000
   01/01/1998 00:46:00      5.040     0.139   28.1743     0.000
   01/01/1998 00:47:00      5.040     0.137   25.3467     0.000
   01/01/1998 00:48:00      5.040     0.135   23.6617     0.000
   01/01/1998 00:49:00      5.040     0.134   22.4842     0.000
   01/01/1998 00:50:00      4.200     0.134   21.6101     0.000
   01/01/1998 00:51:00      4.200     0.131   19.5741     0.000
   01/01/1998 00:52:00      4.200     0.130   18.5378     0.000
   01/01/1998 00:53:00      4.200     0.129   17.8514     0.000
   01/01/1998 00:54:00      4.200     0.128   17.3428     0.000
   01/01/1998 00:55:00      3.600     0.128   16.9490     0.000
   01/01/1998 00:56:00      3.600     0.127   15.7052     0.000
   01/01/1998 00:57:00      3.600     0.126   15.0855     0.000
   01/01/1998 00:58:00      3.600     0.126   14.6812     0.000
   01/01/1998 00:59:00      3.600     0.125   14.3804     0.000
   01/01/1998 01:00:00      2.400     0.125   14.1443     0.000
   01/01/1998 01:01:00      2.400     0.124   12.1874     0.000
   01/01/1998 01:02:00      2.400     0.124   11.2935     0.000
   01/01/1998 01:03:00      2.400     0.124   10.7495     0.000
   01/01/1998 01:04:00      2.400     0.123   10.3612     0.000
   01/01/1998 01:05:00      2.280     0.123   10.0606     0.000
   01/01/1998 01:06:00      2.280     0.123    9.6539     0.000
   01/01/1998 01:07:00      2.280     0.123    9.3809     0.000
   01/01/1998 01:08:00      2.280     0.123    9.1747     0.000
   01/01/1998 01:09:00      2.280     0.122    9.0096     0.000
   01/01/1998 01:10:00      2.160     0.122    8.8739     0.000
   01/01/1998 01:11:00      2.160     0.122    8.5997     0.000
   01/01/1998 01:12:00      2.160     0.122    8.4308     0.000
   01/01/1998 01:13:00      2.160     0.122    8.3088     0.000
   01/01/1998 01:14:00      2.160     0.122    8.2126     0.000
   01/01/1998 01:15:00      2.040     0.122    8.1336     0.000
   01/01/1998 01:16:00      2.040     0.122    7.9092     0.000
   01/01/1998 01:17:00      2.040     0.122    7.7796     0.000
   01/01/1998 01:18:00      2.040     0.122    7.6900     0.000
   01/01/1998 01:19:00      2.040     0.121    7.6207     0.000
   01/01/1998 01:20:00      2.040     0.121    7.5642     0.000
   01/01/1998 01:21:00      2.040     0.121    7.5168     0.000
   01/01/1998 01:22:00      2.040     0.121    7.4766     0.000
   01/01/1998 01:23:00      2.040     0.121    7.4424     0.000
   01/01/1998 01:24:00      2.040     0.121    7.4131     0.000
   01/01/1998 01:25:00      1.920     0.121    7.3881     0.000
   01/01/1998 01:26:00      1.920     0.121    7.2117     0.000
   01/01/1998 01:27:00      1.920     0.121    7.1201     0.000
   01/01/1998 01:28:00      1.920     0.121    7.0621     0.000
   01/01/1998 01:29:00      1.920     0.121    7.0195     0.000
   01/01/1998 01:30:00      1.800     0.121    6.9855     0.000
   01/01/1998 01:31:00      1.800     0.121    6.8046     0.000
   01/01/1998 01:32:00      1.800     0.121    6.7075     0.000
   01/01/1998 01:33:00      1.800     0.121    6.6446     0.000
   01/01/1998 01:34:00      1.800     0.121    6.5978     0.000
   01/01/1998 01:35:00      1.800     0.121    6.5603     0.000
   01/01/1998 01:36:00      1.800     0.121    6.5289     0.000
   01/01/1998 01:37:00      1.800     0.121    6.5021     0.000
   01/01/1998 01:38:00      1.800     0.121    6.4792     0.000
   01/01/1998 01:39:00      1.800     0.121    6.4594     0.000
   01/01/1998 01:40:00      1.680     0.121    6.4423     0.000
   01/01/1998 01:41:00      1.680     0.121    6.2779     0.000
   01/01/1998 01:42:00      1.680     0.121    6.1925     0.000
   01/01/1998 01:43:00      1.680     0.121    6.1390     0.000
   01/01/1998 01:44:00      1.680     0.121    6.1004     0.000
   01/01/1998 01:45:00      1.680     0.121    6.0697     0.000
   01/01/1998 01:46:00      1.680     0.121    6.0441     0.000
   01/01/1998 01:47:00      1.680     0.121    6.0224     0.000
   01/01/1998 01:48:00      1.680     0.121    6.0037     0.000
   01/01/1998 01:49:00      1.680     0.121    5.9875     0.000
   01/01/1998 01:50:00      1.560     0.121    5.9734     0.000
   01/01/1998 01:51:00      1.560     0.121    5.8145     0.000
   01/01/1998 01:52:00      1.560     0.121    5.7316     0.000
   01/01/1998 01:53:00      1.560     0.121    5.6799     0.000
   01/01/1998 01:54:00      1.560     0.121    5.6428     0.000
   01/01/1998 01:55:00      1.560     0.121    5.6135     0.000
   01/01/1998 01:56:00      1.560     0.121    5.5891     0.000
   01/01/1998 01:57:00      1.560     0.121    5.5682     0.000
   01/01/1998 01:58:00      1.560     0.121    5.5503     0.000
   01/01/1998 01:59:00      1.560     0.121    5.5347     0.000
   01/01/1998 02:00:00      0.000     0.121    5.5211     0.000
   01/01/1998 02:01:00      0.000     0.121    3.7841     0.000
   01/01/1998 02:02:00      0.000     0.121    2.9405     0.000
   01/01/1998 02:03:00      0.000     0.121    2.4120     0.000
   01/01/1998 02:04:00      0.000     0.121    2.0336     0.000
   01/01/1998 02:05:00      0.000     0.121    1.7421     0.000
   01/01/1998 02:06:00      0.000     0.121    1.5077     0.000
   01/01/1998 02:07:00      0.000     0.121    1.3138     0.000
   01/01/1998 02:08:00      0.000     0.121    1.1506     0.000
   01/01/1998 02:09:00      0.000     0.121    1.0112     0.000
   01/01/1998 02:10:00      0.000     0.121    0.8911     0.000
   01/01/1998 02:11:00      0.000     0.121    0.7866     0.000
   01/01/1998 02:12:00      0.000     0.121    0.6951     0.000
   01/01/1998 02:13:00      0.000     0.121    0.6146     0.000
   01/01/1998 02:14:00      0.000     0.121    0.5434     0.000
   01/01/1998 02:15:00      0.000     0.121    0.4802     0.000
   01/01/1998 02:16:00      0.000     0.121    0.4239     0.000
   01/01/1998 02:17:00      0.000     0.121    0.3736     0.000
   01/01/1998 02:18:00      0.000     0.121    0.3285     0.000
   01/01/1998 02:19:00      0.000     0.121    0.2881     0.000
   01/01/1998 02:20:00      0.000     0.121    0.2517     0.000
   01/01/1998 02:21:00      0.000     0.121    0.2189     0.000
   01/01/1998 02:22:00      0.000     0.121    0.1894     0.000
   01/01/1998 02:23:00      0.000     0.121    0.1628     0.000
   01/01/1998 02:24:00      0.000     0.121    0.1388     0.000
   01/01/1998 02:25:00      0.000     0.121    0.1172     0.000
   01/01/1998 02:26:00      0.000     0.121    0.0978     0.000
   01/01/1998 02:27:00      0.000     0.121    0.0805     0.000
   01/01/1998 02:28:00      0.000     0.121    0.0650     0.000
   01/01/1998 02:29:00      0.000     0.121    0.0513     0.000
   01/01/1998 02:30:00      0.000     0.121    0.0393     0.000
   01/01/1998 02:31:00      0.000     0.121    0.0289     0.000
   01/01/1998 02:32:00      0.000     0.121    0.0201     0.000
   01/01/1998 02:33:00      0.000     0.121    0.0129     0.000
   01/01/1998 02:34:00      0.000     0.121    0.0074     0.000
   01/01/1998 02:35:00      0.000     0.121    0.0038     0.000
   01/01/1998 02:36:00      0.000     0.121    0.0000     0.000
   01/01/1998 02:37:00      0.000     0.121    0.0000     0.000
   01/01/1998 02:38:00      0.000     0.121    0.0000     0.000
   01/01/1998 02:39:00      0.000     0.121    0.0000     0.000
   01/01/1998 02:40:00      0.000     0.121    0.0000     0.000
   01/01/1998 02:41:00      0.000     0.121    0.0000     0.000
   01/01/1998 02:42:00      0.000     0.121    0.0000     0.000
   01/01/1998 02:43:00      0.000     0.121    0.0000     0.000
   01/01/1998 02:44:00      0.000     0.121    0.0000     0.000
   01/01/1998 02:45:00      0.000     0.121    0.0000     0.000
   01/01/1998 02:46:00      0.000     0.121    0.0000     0.000
   01/01/1998 02:47:00      0.000     0.121    0.0000     0.000
   01/01/1998 02:48:00      0.000     0.121    0.0000     0.000
   01/01/1998 02:49:00      0.000     0.121    0.0000     0.000
   01/01/1998 02:50:00      0.000     0.121    0.0000     0.000
   01/01/1998 02:51:00      0.000     0.121    0.0000     0.000
   01/01/1998 02:52:00      0.000     0.121    0.0000     0.000
   01/01/1998 02:53:00      0.000     0.121    0.0000     0.000
   01/01/1998 02:54:00      0.000     0.121    0.0000     0.000
   01/01/1998 02:55:00      0.000     0.121    0.0000     0.000
   01/01/1998 02:56:00      0.000     0.121    0.0000     0.000
   01/01/1998 02:57:00      0.000     0.121    0.0000     0.000
   01/01/1998 02:58:00      0.000     0.121    0.0000     0.000
   01/01/1998 02:59:00      0.000     0.121    0.0000     0.000
   01/01/1998 03:00:00      0.000     0.121    0.0000     0.000
   01/01/1998 03:01:00      0.000     0.121    0.0000     0.000
   01/01/1998 03:02:00      0.000     0.121    0.0000     0.000
   01/01/1998 03:03:00      0.000     0.121    0.0000     0.000
   01/01/1998 03:04:00      0.000     0.121    0.0000     0.000
   01/01/1998 03:05:00      0.000     0.121    0.0000     0.000
   01/01/1998 03:06:00      0.000     0.121    0.0000     0.000
   01/01/1998 03:07:00      0.000     0.121    0.0000     0.000
   01/01/1998 03:08:00      0.000     0.121    0.0000     0.000
   01/01/1998 03:09:00      0.000     0.121    0.0000     0.000
   01/01/1998 03:10:00      0.000     0.121    0.0000     0.000
   01/01/1998 03:11:00      0.000     0.121    0.0000     0.000
   01/01/1998 03:12:00      0.000     0.121    0.0000     0.000
   01/01/1998 03:13:00      0.000     0.121    0.0000     0.000
   01/01/1998 03:14:00      0.000     0.121    0.0000     0.000
   01/01/1998 03:15:00      0.000     0.121    0.0000     0.000
   01/01/1998 03:16:00      0.000     0.121    0.0000     0.000
   01/01/1998 03:17:00      0.000     0.121    0.0000     0.000
   01/01/1998 03:18:00      0.000     0.121    0.0000     0.000
   01/01/1998 03:19:00      0.000     0.121    0.0000     0.000
   01/01/1998 03:20:00      0.000     0.121    0.0000     0.000
   01/01/1998 03:21:00      0.000     0.121    0.0000     0.000
   01/01/1998 03:22:00      0.000     0.121    0.0000     0.000
   01/01/1998 03:23:00      0.000     0.121    0.0000     0.000
   01/01/1998 03:24:00      0.000     0.121    0.0000     0.000
   01/01/1998 03:25:00      0.000     0.121    0.0000     0.000
   01/01/1998 03:26:00      0.000     0.121    0.0000     0.000
   01/01/1998 03:27:00      0.000     0.121    0.0000     0.000
   01/01/1998 03:28:00      0.000     0.121    0.0000     0.000
   01/01/1998 03:29:00      0.000     0.121    0.0000     0.000
   01/01/1998 03:30:00      0.000     0.121    0.0000     0.000
   01/01/1998 03:31:00      0.000     0.121    0.0000     0.000
   01/01/1998 03:32:00      0.000     0.121    0.0000     0.000
   01/01/1998 03:33:00      0.000     0.121    0.0000     0.000
   01/01/1998 03:34:00      0.000     0.121    0.0000     0.000
   01/01/1998 03:35:00      0.000     0.121    0.0000     0.000
   01/01/1998 03:36:00      0.000     0.121    0.0000     0.000
   01/01/1998 03:37:00      0.000     0.121    0.0000     0.000
   01/01/1998 03:38:00      0.000     0.121    0.0000     0.000
   01/01/1998 03:39:00      0.000     0.121    0.0000     0.000
   01/01/1998 03:40:00      0.000     0.121    0.0000     0.000
   01/01/1998 03:41:00      0.000     0.121    0.0000     0.000
   01/01/1998 03:42:00      0.000     0.121    0.0000     0.000
   01/01/1998 03:43:00      0.000     0.121    0.0000     0.000
   01/01/1998 03:44:00      0.000     0.121    0.0000     0.000
   01/01/1998 03:45:00      0.000     0.121    0.0000     0.000
   01/01/1998 03:46:00      0.000     0.121    0.0000     0.000
   01/01/1998 03:47:00      0.000     0.121    0.0000     0.000
   01/01/1998 03:48:00      0.000     0.121    0.0000     0.000
   01/01/1998 03:49:00      0.000     0.121    0.0000     0.000
   01/01/1998 03:50:00      0.000     0.121    0.0000     0.000
   01/01/1998 03:51:00      0.000     0.121    0.0000     0.000
   01/01/1998 03:52:00      0.000     0.121    0.0000     0.000
   01/01/1998 03:53:00      0.000     0.121    0.0000     0.000
   01/01/1998 03:54:00      0.000     0.121    0.0000     0.000
   01/01/1998 03:55:00      0.000     0.121    0.0000     0.000
   01/01/1998 03:56:00      0.000     0.121    0.0000     0.000
   01/01/1998 03:57:00      0.000     0.121    0.0000     0.000
   01/01/1998 03:58:00      0.000     0.121    0.0000     0.000
[...]
   01/01/1998 01:33:00     64.940     9.917     1.885     0.370     0.000
   01/01/1998 01:34:00     64.318     9.891     1.875     0.367     0.000
   01/01/1998 01:35:00     63.734     9.866     1.865     0.365     0.000
   01/01/1998 01:36:00     63.201     9.843     1.857     0.362     0.000
   01/01/1998 01:37:00     62.722     9.823     1.849     0.360     0.000
   01/01/1998 01:38:00     62.310     9.806     1.843     0.359     0.000
   01/01/1998 01:39:00     61.952     9.791     1.837     0.357     0.000
   01/01/1998 01:40:00     61.639     9.777     1.832     0.356     0.000
   01/01/1998 01:41:00     61.314     9.764     1.827     0.354     0.000
   01/01/1998 01:42:00     60.870     9.745     1.819     0.352     0.000
   01/01/1998 01:43:00     60.413     9.725     1.812     0.351     0.000
   01/01/1998 01:44:00     59.965     9.706     1.805     0.349     0.000
   01/01/1998 01:45:00     59.527     9.686     1.798     0.347     0.000
   01/01/1998 01:46:00     59.132     9.668     1.791     0.345     0.000
   01/01/1998 01:47:00     58.764     9.651     1.785     0.344     0.000
   01/01/1998 01:48:00     58.429     9.636     1.780     0.342     0.000
   01/01/1998 01:49:00     58.136     9.623     1.775     0.341     0.000
   01/01/1998 01:50:00     57.884     9.611     1.771     0.340     0.000
   01/01/1998 01:51:00     57.599     9.598     1.766     0.339     0.000
   01/01/1998 01:52:00     57.199     9.580     1.759     0.337     0.000
   01/01/1998 01:53:00     56.777     9.561     1.752     0.335     0.000
   01/01/1998 01:54:00     56.363     9.542     1.745     0.333     0.000
   01/01/1998 01:55:00     55.947     9.523     1.738     0.332     0.000
   01/01/1998 01:56:00     55.574     9.506     1.732     0.330     0.000
   01/01/1998 01:57:00     55.216     9.489     1.726     0.328     0.000
   01/01/1998 01:58:00     54.893     9.474     1.721     0.327     0.000
   01/01/1998 01:59:00     54.611     9.461     1.716     0.326     0.000
   01/01/1998 02:00:00     54.364     9.449     1.712     0.325     0.000
   01/01/1998 02:01:00     53.249     9.394     1.693     0.320     0.000
   01/01/1998 02:02:00     50.428     9.255     1.645     0.307     0.000
   01/01/1998 02:03:00     47.130     9.082     1.587     0.293     0.000
   01/01/1998 02:04:00     43.773     8.895     1.527     0.278     0.000
   01/01/1998 02:05:00     40.382     8.694     1.464     0.262     0.000
   01/01/1998 02:06:00     37.093     8.487     1.401     0.247     0.000
   01/01/1998 02:07:00     33.896     8.274     1.338     0.231     0.000
   01/01/1998 02:08:00     30.931     8.058     1.277     0.217     0.000
   01/01/1998 02:09:00     28.239     7.851     1.219     0.203     0.000
   01/01/1998 02:10:00     25.788     7.652     1.164     0.190     0.000
   01/01/1998 02:11:00     23.761     7.471     1.118     0.179     0.000
   01/01/1998 02:12:00     21.948     7.303     1.074     0.170     0.000
   01/01/1998 02:13:00     20.378     7.144     1.035     0.161     0.000
   01/01/1998 02:14:00     19.040     7.005     1.001     0.153     0.000
   01/01/1998 02:15:00     17.884     6.880     0.970     0.147     0.000
   01/01/1998 02:16:00     16.932     6.769     0.945     0.141     0.000
   01/01/1998 02:17:00     16.106     6.670     0.921     0.136     0.000
   01/01/1998 02:18:00     15.393     6.584     0.901     0.132     0.000
   01/01/1998 02:19:00     14.774     6.506     0.883     0.128     0.000
   01/01/1998 02:20:00     14.218     6.433     0.866     0.125     0.000
   01/01/1998 02:21:00     13.762     6.371     0.853     0.122     0.000
   01/01/1998 02:22:00     13.358     6.311     0.840     0.119     0.000
   01/01/1998 02:23:00     12.998     6.262     0.829     0.117     0.000
   01/01/1998 02:24:00     12.670     6.217     0.818     0.115     0.000
   01/01/1998 02:25:00     12.382     6.180     0.809     0.113     0.000
   01/01/1998 02:26:00     12.128     6.143     0.800     0.111     0.000
   01/01/1998 02:27:00     11.898     6.110     0.793     0.110     0.000
   01/01/1998 02:28:00     11.689     6.078     0.786     0.109     0.000
   01/01/1998 02:29:00     11.505     6.049     0.780     0.107     0.000
   01/01/1998 02:30:00     11.338     6.023     0.775     0.106     0.000
   01/01/1998 02:31:00     11.188     5.998     0.770     0.105     0.000
   01/01/1998 02:32:00     11.051     5.976     0.765     0.104     0.000
   01/01/1998 02:33:00     10.928     5.956     0.761     0.104     0.000
   01/01/1998 02:34:00     10.818     5.936     0.758     0.103     0.000
   01/01/1998 02:35:00     10.718     5.919     0.754     0.102     0.000
   01/01/1998 02:36:00     10.627     5.901     0.751     0.102     0.000
   01/01/1998 02:37:00     10.545     5.885     0.749     0.101     0.000
   01/01/1998 02:38:00     10.476     5.872     0.746     0.101     0.000
   01/01/1998 02:39:00     10.413     5.861     0.744     0.100     0.000
   01/01/1998 02:40:00     10.357     5.851     0.742     0.100     0.000
   01/01/1998 02:41:00     10.309     5.843     0.741     0.100     0.000
   01/01/1998 02:42:00     10.266     5.836     0.739     0.099     0.000
   01/01/1998 02:43:00     10.231     5.832     0.738     0.099     0.000
   01/01/1998 02:44:00     10.199     5.826     0.736     0.099     0.000
   01/01/1998 02:45:00     10.173     5.822     0.736     0.099     0.000
   01/01/1998 02:46:00     10.151     5.818     0.735     0.098     0.000
   01/01/1998 02:47:00     10.133     5.815     0.734     0.098     0.000
   01/01/1998 02:48:00     10.118     5.813     0.734     0.098     0.000
   01/01/1998 02:49:00     10.106     5.811     0.733     0.098     0.000
   01/01/1998 02:50:00     10.096     5.809     0.733     0.098     0.000
   01/01/1998 02:51:00     10.089     5.808     0.733     0.098     0.000
   01/01/1998 02:52:00     10.083     5.807     0.732     0.098     0.000
   01/01/1998 02:53:00     10.078     5.806     0.732     0.098     0.000
   01/01/1998 02:54:00     10.074     5.805     0.732     0.098     0.000
   01/01/1998 02:55:00     10.070     5.805     0.732     0.098     0.000
   01/01/1998 02:56:00     10.067     5.804     0.732     0.098     0.000
   01/01/1998 02:57:00     10.064     5.804     0.732     0.098     0.000
   01/01/1998 02:58:00     10.061     5.803     0.732     0.098     0.000
   01/01/1998 02:59:00     10.058     5.803     0.731     0.098     0.000
   01/01/1998 03:00:00     10.055     5.802     0.731     0.098     0.000
   01/01/1998 03:01:00     10.053     5.802     0.731     0.098     0.000
   01/01/1998 03:02:00     10.051     5.801     0.731     0.098     0.000
   01/01/1998 03:03:00     10.048     5.801     0.731     0.098     0.000
   01/01/1998 03:04:00     10.046     5.801     0.731     0.098     0.000
   01/01/1998 03:05:00     10.044     5.800     0.731     0.098     0.000
   01/01/1998 03:06:00     10.042     5.800     0.731     0.098     0.000
   01/01/1998 03:07:00     10.040     5.800     0.731     0.098     0.000
   01/01/1998 03:08:00     10.039     5.800     0.731     0.098     0.000
   01/01/1998 03:09:00     10.037     5.799     0.731     0.098     0.000
   01/01/1998 03:10:00     10.036     5.799     0.731     0.098     0.000
   01/01/1998 03:11:00     10.034     5.799     0.731     0.098     0.000
   01/01/1998 03:12:00     10.033     5.799     0.731     0.098     0.000
   01/01/1998 03:13:00     10.032     5.798     0.731     0.098     0.000
   01/01/1998 03:14:00     10.031     5.798     0.730     0.098     0.000
   01/01/1998 03:15:00     10.030     5.798     0.730     0.098     0.000
   01/01/1998 03:16:00     10.028     5.798     0.730     0.098     0.000
   01/01/1998 03:17:00     10.027     5.798     0.730     0.098     0.000
   01/01/1998 03:18:00     10.027     5.797     0.730     0.098     0.000
   01/01/1998 03:19:00     10.026     5.797     0.730     0.098     0.000
   01/01/1998 03:20:00     10.025     5.797     0.730     0.098     0.000
   01/01/1998 03:21:00     10.024     5.797     0.730     0.098     0.000
   01/01/1998 03:22:00     10.023     5.797     0.730     0.098     0.000
   01/01/1998 03:23:00     10.022     5.797     0.730     0.098     0.000
   01/01/1998 03:24:00     10.022     5.797     0.730     0.098     0.000
   01/01/1998 03:25:00     10.021     5.797     0.730     0.098     0.000
   01/01/1998 03:26:00     10.020     5.796     0.730     0.098     0.000
   01/01/1998 03:27:00     10.020     5.796     0.730     0.098     0.000
   01/01/1998 03:28:00     10.019     5.796     0.730     0.098     0.000
   01/01/1998 03:29:00     10.019     5.796     0.730     0.098     0.000
   01/01/1998 03:30:00     10.018     5.796     0.730     0.098     0.000
   01/01/1998 03:31:00     10.017     5.796     0.730     0.098     0.000
   01/01/1998 03:32:00     10.017     5.796     0.730     0.098     0.000
   01/01/1998 03:33:00     10.016     5.796     0.730     0.098     0.000
   01/01/1998 03:34:00     10.016     5.796     0.730     0.098     0.000
   01/01/1998 03:35:00     10.016     5.796     0.730     0.098     0.000
   01/01/1998 03:36:00     10.015     5.796     0.730     0.098     0.000
   01/01/1998 03:37:00     10.015     5.796     0.730     0.098     0.000
   01/01/1998 03:38:00     10.014     5.795     0.730     0.098     0.000
   01/01/1998 03:39:00     10.014     5.795     0.730     0.098     0.000
   01/01/1998 03:40:00     10.014     5.795     0.730     0.098     0.000
   01/01/1998 03:41:00     10.013     5.795     0.730     0.098     0.000
   01/01/1998 03:42:00     10.013     5.795     0.730     0.098     0.000
   01/01/1998 03:43:00     10.013     5.795     0.730     0.097     0.000
   01/01/1998 03:44:00     10.012     5.795     0.730     0.097     0.000
   01/01/1998 03:45:00     10.012     5.795     0.730     0.097     0.000
   01/01/1998 03:46:00     10.012     5.795     0.730     0.097     0.000
   01/01/1998 03:47:00     10.011     5.795     0.730     0.097     0.000
   01/01/1998 03:48:00     10.011     5.795     0.730     0.097     0.000
   01/01/1998 03:49:00     10.011     5.795     0.730     0.097     0.000
   01/01/1998 03:50:00     10.011     5.795     0.730     0.097     0.000
   01/01/1998 03:51:00     10.010     5.795     0.730     0.097     0.000
   01/01/1998 03:52:00     10.010     5.795     0.730     0.097     0.000
   01/01/1998 03:53:00     10.010     5.795     0.730     0.097     0.000
   01/01/1998 03:54:00     10.010     5.795     0.730     0.097     0.000
   01/01/1998 03:55:00     10.009     5.795     0.730     0.097     0.000
   01/01/1998 03:56:00     10.009     5.795     0.730     0.097     0.000
   01/01/1998 03:57:00     10.009     5.795     0.730     0.097     0.000
   01/01/1998 03:58:00     10.009     5.795     0.730     0.097     0.000
   01/01/1998 03:59:00     10.009     5.795     0.730     0.097     0.000
   01/01/1998 04:00:00     10.009     5.795     0.730     0.097     0.000
   01/01/1998 04:01:00     10.008     5.794     0.730     0.097     0.000
   01/01/1998 04:02:00     10.008     5.794     0.730     0.097     0.000
   01/01/1998 04:03:00     10.008     5.794     0.730     0.097     0.000
   01/01/1998 04:04:00     10.008     5.794     0.730     0.097     0.000
   01/01/1998 04:05:00     10.008     5.794     0.730     0.097     0.000
   01/01/1998 04:06:00     10.008     5.794     0.730     0.097     0.000
   01/01/1998 04:07:00     10.007     5.794     0.730     0.097     0.000
   01/01/1998 04:08:00     10.007     5.794     0.730     0.097     0.000
   01/01/1998 04:09:00     10.007     5.794     0.730     0.097     0.000
   01/01/1998 04:10:00     10.007     5.794     0.730     0.097     0.000
   01/01/1998 04:11:00     10.007     5.794     0.730     0.097     0.000
   01/01/1998 04:12:00     10.007     5.794     0.730     0.097     0.000
   01/01/1998 04:13:00     10.007     5.794     0.730     0.097     0.000
   01/01/1998 04:14:00     10.006     5.794     0.730     0.097     0.000
   01/01/1998 04:15:00     10.006     5.794     0.730     0.097     0.000
   01/01/1998 04:16:00     10.006     5.794     0.730     0.097     0.000
   01/01/1998 04:17:00     10.006     5.794     0.730     0.097     0.000
   01/01/1998 04:18:00     10.006     5.794     0.730     0.097     0.000
   01/01/1998 04:19:00     10.006     5.794     0.730     0.097     0.000
   01/01/1998 04:20:00     10.006     5.794     0.730     0.097     0.000
   01/01/1998 04:21:00     10.006     5.794     0.730     0.097     0.000
   01/01/1998 04:22:00     10.006     5.794     0.730     0.097     0.000
   01/01/1998 04:23:00     10.005     5.794     0.730     0.097     0.000
   01/01/1998 04:24:00     10.005     5.794     0.730     0.097     0.000
   01/01/1998 04:25:00     10.005     5.794     0.730     0.097     0.000
   01/01/1998 04:26:00     10.005     5.794     0.730     0.097     0.000
   01/01/1998 04:27:00     10.005     5.794     0.730     0.097     0.000
   01/01/1998 04:28:00     10.005     5.794     0.730     0.097     0.000
   01/01/1998 04:29:00     10.005     5.794     0.730     0.097     0.000
   01/01/1998 04:30:00     10.005     5.794     0.730     0.097     0.000
   01/01/1998 04:31:00     10.005     5.794     0.730     0.097     0.000
   01/01/1998 04:32:00     10.005     5.794     0.730     0.097     0.000
   01/01/1998 04:33:00     10.005     5.794     0.730     0.097     0.000
   01/01/1998 04:34:00     10.004     5.794     0.730     0.097     0.000
   01/01/1998 04:35:00     10.004     5.794     0.730     0.097     0.000
   01/01/1998 04:36:00     10.004     5.794     0.730     0.097     0.000
   01/01/1998 04:37:00     10.004     5.794     0.730     0.097     0.000
   01/01/1998 04:38:00     10.004     5.794     0.729     0.097     0.000
   01/01/1998 04:39:00     10.004     5.794     0.729     0.097     0.000
   01/01/1998 04:40:00     10.004     5.794     0.729     0.097     0.000
   01/01/1998 04:41:00     10.004     5.794     0.729     0.097     0.000
   01/01/1998 04:42:00     10.004     5.794     0.729     0.097     0.000
   01/01/1998 04:43:00     10.004     5.794     0.729     0.097     0.000
   01/01/1998 04:44:00     10.004     5.794     0.729     0.097     0.000
   01/01/1998 04:45:00     10.004     5.794     0.729     0.097     0.000
   01/01/1998 04:46:00     10.004     5.794     0.729     0.097     0.000
   01/01/1998 04:47:00     10.004     5.794     0.729     0.097     0.000
   01/01/1998 04:48:00     10.004     5.794     0.729     0.097     0.000
   01/01/1998 04:49:00     10.004     5.794     0.729     0.097     0.000
   01/01/1998 04:50:00     10.003     5.794     0.729     0.097     0.000
   01/01/1998 04:51:00     10.003     5.794     0.729     0.097     0.000
   01/01/1998 04:52:00     10.003     5.794     0.729     0.097     0.000
   01/01/1998 04:53:00     10.003     5.794     0.729     0.097     0.000
   01/01/1998 04:54:00     10.003     5.794     0.729     0.097     0.000
   01/01/1998 04:55:00     10.003     5.794     0.729     0.097     0.000
   01/01/1998 04:56:00     10.003     5.794     0.729     0.097     0.000
   01/01/1998 04:57:00     10.003     5.794     0.729     0.097     0.000
   01/01/1998 04:58:00     10.003     5.794     0.729     0.097     0.000
   01/01/1998 04:59:00     10.003     5.794     0.729     0.097     0.000
   01/01/1998 05:00:00     10.003     5.794     0.729     0.097     0.000
   01/01/1998 05:01:00     10.003     5.794     0.729     0.097     0.000
   01/01/1998 05:02:00     10.003     5.794     0.729     0.097     0.000
   01/01/1998 05:03:00     10.003     5.794     0.729     0.097     0.000
   01/01/1998 05:04:00     10.003     5.794     0.729     0.097     0.000
   01/01/1998 05:05:00     10.003     5.794     0.729     0.097     0.000
   01/01/1998 05:06:00     10.003     5.794     0.729     0.097     0.000
   01/01/1998 05:07:00     10.003     5.794     0.729     0.097     0.000
   01/01/1998 05:08:00     10.003     5.794     0.729     0.097     0.000
   01/01/1998 05:09:00     10.003     5.794     0.729     0.097     0.000
   01/01/1998 05:10:00     10.003     5.794     0.729     0.097     0.000
   01/01/1998 05:11:00     10.003     5.794     0.729     0.097     0.000
   01/01/1998 05:12:00     10.003     5.794     0.729     0.097     0.000
   01/01/1998 05:13:00     10.002     5.794     0.729     0.097     0.000
   01/01/1998 05:14:00     10.002     5.794     0.729     0.097     0.000
   01/01/1998 05:15:00     10.002     5.794     0.729     0.097     0.000
   01/01/1998 05:16:00     10.002     5.794     0.729     0.097     0.000
   01/01/1998 05:17:00     10.002     5.794     0.729     0.097     0.000
   01/01/1998 05:18:00     10.002     5.793     0.729     0.097     0.000
   01/01/1998 05:19:00     10.002     5.793     0.729     0.097     0.000
   01/01/1998 05:20:00     10.002     5.793     0.729     0.097     0.000
   01/01/1998 05:21:00     10.002     5.793     0.729     0.097     0.000
   01/01/1998 05:22:00     10.002     5.793     0.729     0.097     0.000
   01/01/1998 05:23:00     10.002     5.793     0.729     0.097     0.000
   01/01/1998 05:24:00     10.002     5.793     0.729     0.097     0.000
   01/01/1998 05:25:00     10.002     5.793     0.729     0.097     0.000
   01/01/1998 05:26:00     10.002     5.793     0.729     0.097     0.000
   01/01/1998 05:27:00     10.002     5.793     0.729     0.097     0.000
   01/01/1998 05:28:00     10.002     5.793     0.729     0.097     0.000
   01/01/1998 05:29:00     10.002     5.793     0.729     0.097     0.000
   01/01/1998 05:30:00     10.002     5.793     0.729     0.097     0.000
   01/01/1998 05:31:00     10.002     5.793     0.729     0.097     0.000
   01/01/1998 05:32:00     10.002     5.793     0.729     0.097     0.000
   01/01/1998 05:33:00     10.002     5.793     0.729     0.097     0.000
   01/01/1998 05:34:00     10.002     5.793     0.729     0.097     0.000
   01/01/1998 05:35:00     10.002     5.793     0.729     0.097     0.000
   01/01/1998 05:36:00     10.002     5.793     0.729     0.097     0.000
   01/01/1998 05:37:00     10.002     5.793     0.729     0.097     0.000
   01/01/1998 05:38:00     10.002     5.793     0.729     0.097     0.000
   01/01/1998 05:39:00     10.002     5.793     0.729     0.097     0.000
   01/01/1998 05:40:00     10.002     5.793     0.729     0.097     0.000
   01/01/1998 05:41:00     10.002     5.793     0.729     0.097     0.000
   01/01/1998 05:42:00     10.002     5.793     0.729     0.097     0.000
   01/01/1998 05:43:00     10.002     5.793     0.729     0.097     0.000
   01/01/1998 05:44:00     10.002     5.793     0.729     0.097     0.000
   01/01/1998 05:45:00     10.002     5.793     0.729     0.097     0.000
   01/01/1998 05:46:00     10.002     5.793     0.729     0.097     0.000
   01/01/1998 05:47:00     10.002     5.793     0.729     0.097     0.000
   01/01/1998 05:48:00     10.002     5.793     0.729     0.097     0.000
   01/01/1998 05:49:00     10.002     5.793     0.729     0.097     0.000
   01/01/1998 05:50:00     10.002     5.793     0.729     0.097     0.000
   01/01/1998 05:51:00     10.002     5.793     0.729     0.097     0.000
   01/01/1998 05:52:00     10.002     5.793     0.729     0.097     0.000
   01/01/1998 05:53:00     10.002     5.793     0.729     0.097     0.000
   01/01/1998 05:54:00     10.001     5.793     0.729     0.097     0.000
   01/01/1998 05:55:00     10.001     5.793     0.729     0.097     0.000
   01/01/1998 05:56:00     10.001     5.793     0.729     0.097     0.000
   01/01/1998 05:57:00     10.001     5.793     0.729     0.097     0.000
   01/01/1998 05:58:00     10.001     5.793     0.729     0.097     0.000
   01/01/1998 05:59:00     10.001     5.793     0.729     0.097     0.000
   01/01/1998 06:00:00     10.001     5.793     0.729     0.097     0.000
  

  Analysis begun on:  Wed Mar 25 09:05:17 2026
  Analysis ended on:  Wed Mar 25 09:05:18 2026
  Total elapsed time: 00:00:01