
  OPEN STORM WATER MANAGEMENT MODEL - VERSION 6.0 (openswmm.engine 6.0.0)
  ----------------------------------------------------------------------
  
  ****************
  Analysis Options
  ****************
  Flow Units ............... CFS
  Process Models:
    Rainfall/Runoff ........ YES
    RDII ................... NO
    Snowmelt ............... NO
    Groundwater ............ NO
    Flow Routing ........... YES
    Ponding Allowed ........ NO
    Water Quality .......... YES
  Infiltration Method ...... HORTON
  Flow Routing Method ...... DYNWAVE
  Surcharge Method ......... EXTRAN
  Starting Date ............ 01/01/1998 00:00:00
  Ending Date .............. 01/02/1998 06:00:00
  Antecedent Dry Days ...... 5.0
  Report Time Step ......... 00:05:00
  Wet Time Step ............ 00:01:00
  Dry Time Step ............ 00:05:00
  Routing Time Step ........ 5.00 sec
  Variable Time Step ....... YES
  Maximum Trials ........... 8
  Number of Threads ........ 1
  Head Tolerance ........... 0.005000 ft
  
  
  **************************        Volume         Depth
  Runoff Quantity Continuity     acre-feet        inches
  **************************     ---------       -------
  Total Precipitation ......         6.829         2.834
  Evaporation Loss .........         0.000         0.000
  Infiltration Loss ........         2.148         0.891
  Surface Runoff ...........         4.625         1.919
  Final Storage ............         0.062         0.026
  Continuity Error (%) .....        -0.094
  
  
  **************************           TSS
  Runoff Quality Continuity           lbs
  **************************    ----------
  Initial Buildup ..........       913.850
  Surface Buildup ..........       495.726
  Wet Deposition ...........         0.000
  Sweeping Removal .........         0.000
  Infiltration Loss ........         0.000
  BMP Removal ..............         0.000
  Surface Runoff ...........      1317.428
  Remaining Buildup ........        92.148
  Continuity Error (%) .....        -0.000
  
  
  **************************        Volume        Volume
  Flow Routing Continuity        acre-feet      10^6 gal
  **************************     ---------     ---------
  Dry Weather Inflow .......         0.000         0.000
  Wet Weather Inflow .......         4.625         1.507
  Groundwater Inflow .......         0.000         0.000
  RDII Inflow ..............         0.000         0.000
  External Inflow ..........         0.000         0.000
  External Outflow .........         4.625         1.507
  Flooding Loss ............         0.000         0.000
  Evaporation Loss .........         0.000         0.000
  Exfiltration Loss ........         0.000         0.000
  Initial Stored Volume ....         0.000         0.000
  Final Stored Volume ......         0.001         0.000
  Continuity Error (%) .....        -0.006
  
  
  **************************           TSS
  Quality Routing Continuity          lbs
  **************************    ----------
  Dry Weather Inflow .......         0.000
  Wet Weather Inflow .......       314.226
  Groundwater Inflow .......         0.000
  RDII Inflow ..............         0.000
  External Inflow ..........         0.000
  External Outflow .........         0.000
  Flooding Loss ............         0.000
  Exfiltration Loss ........         0.000
  Mass Reacted .............         0.000
  Initial Stored Mass ......         0.000
  Final Stored Mass ........         0.000
  Continuity Error (%) .....       100.000
  
  
  ***************************
  Time-Step Critical Elements
  ***************************
    None
  
  ********************************
  Highest Flow Instability Indexes
  ********************************
  All links are stable.
  
  *********************************
  Most Frequent Nonconverging Nodes
  *********************************
  Convergence obtained at all time steps.
  
  *************************
  Routing Time Step Summary
  *************************
  Minimum Time Step                  :     5.00 sec
  Average Time Step                  :     5.00 sec
  Maximum Time Step                  :     5.00 sec
  Percent in Steady State            :      0.0
  Average Iterations per Step        :      0.0
  

  ***************************
  Subcatchment Runoff Summary
  ***************************

  ------------------------------------------------------------------------------------------------------------------------------
                            Total      Total      Total      Total     Imperv       Perv      Total       Total     Peak  Runoff
                           Precip      Runon       Evap      Infil     Runoff     Runoff     Runoff      Runoff   Runoff   Coeff
  Subcatchment                 in         in         in         in         in         in         in    10^6 gal      CFS
  ------------------------------------------------------------------------------------------------------------------------------
  S1                         2.83       0.00       0.00       0.90       1.59       0.33       1.91        0.24    15.90   0.675
  S2                         2.83       0.00       0.00       0.77       1.76       0.28       2.04        0.26    17.70   0.720
  S3                         2.83       0.00       0.00       1.26       1.10       0.46       1.56        0.16    11.33   0.551
  S4                         2.83       0.00       0.00       1.04       1.39       0.38       1.77        0.33    22.78   0.626
  S5                         2.83       0.00       0.00       0.25       2.45       0.10       2.54        0.33    21.51   0.898
  S6                         2.83       0.00       0.00       0.10       2.65       0.04       2.69        0.14     9.05   0.950
  S7                         2.83       0.00       0.00       2.10       0.00       0.74       0.74        0.05     4.54   0.260
  
  
  ****************************
  Subcatchment Washoff Summary
  ****************************

  ----------------------------------
                                 TSS
  Subcatchment                   lbs
  ----------------------------------
  S1                         261.404
  S2                         295.248
  S3                          92.588
  S4                         228.112
  S5                         303.595
  S6                         136.481
  S7                           0.000
  ----------------------------------
  System                    1317.428
  
  
  ******************
  Node Depth Summary
  ******************

  ---------------------------------------------------------------------------------
                                 Average  Maximum  Maximum  Time of Max    Reported
                                   Depth    Depth      HGL   Occurrence   Max Depth
  Node                 Type         Feet     Feet     Feet  days hr:min        Feet
  ---------------------------------------------------------------------------------
  J1                   JUNCTION      0.00     0.65  4973.65                    0.65
  J2                   JUNCTION      0.00     0.67  4969.67                    0.67
  J3                   JUNCTION      0.00     0.93  4973.93                    0.93
  J4                   JUNCTION      0.00     0.65  4971.65                    0.65
  J5                   JUNCTION      0.00     1.12  4970.92                    1.12
  J6                   JUNCTION      0.00     1.47  4970.47                    1.47
  J7                   JUNCTION      0.00     0.77  4972.27                    0.77
  J8                   JUNCTION      0.00     1.16  4967.66                    1.16
  J9                   JUNCTION      0.00     1.47  4966.27                    1.47
  J10                  JUNCTION      0.00     1.60  4965.40                    1.60
  J11                  JUNCTION      0.00     2.17  4965.17                    2.17
  O1                   OUTFALL       0.00     2.05  4964.05                    2.05
  
  
  *******************
  Node Inflow Summary
  *******************

  -------------------------------------------------------------------------------------------------
                                  Maximum  Maximum                  Lateral       Total        Flow
                                  Lateral    Total  Time of Max      Inflow      Inflow     Balance
                                   Inflow   Inflow   Occurrence      Volume      Volume       Error
  Node                 Type           CFS      CFS  days hr:min    10^6 gal    10^6 gal     Percent
  -------------------------------------------------------------------------------------------------
  J1                   JUNCTION     15.90    15.90                      0.236       0.236     0.000
  J2                   JUNCTION     17.70    17.70                      0.263       0.263     0.000
  J3                   JUNCTION     11.33    11.33                      0.159       0.159     0.000
  J4                   JUNCTION      0.00    11.50                      0.000       0.159     0.000
  J5                   JUNCTION      0.00    27.03                      0.000       0.395     0.000
  J6                   JUNCTION      0.00    45.86                      0.000       0.723     0.000
  J7                   JUNCTION     22.78    22.78                      0.327       0.327     0.000
  J8                   JUNCTION      0.00    41.98                      0.000       0.722     0.000
  J9                   JUNCTION      0.00    41.46                      0.000       0.722     0.000
  J10                  JUNCTION     24.60    57.94                      0.378       1.100     0.000
  J11                  JUNCTION      9.05    76.16                      0.145       1.507     0.000
  O1                   OUTFALL       0.00    75.36                      0.000       1.507     0.000
  
  
  **********************
  Node Surcharge Summary
  **********************
  
  No nodes were surcharged.
  
  
  *********************
  Node Flooding Summary
  *********************
  
  No nodes were flooded.
  
  
  ***********************
  Outfall Loading Summary
  ***********************

  -------------------------------------------------------------------------
                         Flow       Avg       Max       Total         Total
                         Freq      Flow      Flow      Volume           TSS
  Outfall Node           Pcnt       CFS       CFS    10^6 gal           lbs
  -------------------------------------------------------------------------
  O1                   98.56      1.89     75.36       1.507         0.000
  -------------------------------------------------------------------------
  System               0.00      0.00      0.00       1.507         0.000
  
  
  ********************
  Link Flow Summary
  ********************

  -----------------------------------------------------------------------------
                                 Maximum  Time of Max   Maximum    Max/    Max/
                                  |Flow|   Occurrence   |Veloc|    Full    Full
  Link                 Type          CFS  days hr:min    ft/sec    Flow   Depth
  -----------------------------------------------------------------------------
  C1                   CONDUIT       15.83                     1.97    0.05    0.29
  C2                   CONDUIT       14.53                     2.87    0.32    0.64
  C3                   CONDUIT       11.50                     9.35    0.34    0.35
  C4                   CONDUIT       11.20                     1.34    0.05    0.29
  C5                   CONDUIT       23.58                     1.58    0.15    0.43
  C6                   CONDUIT       22.76                     2.08    0.07    0.37
  C7                   CONDUIT       41.98                    12.78    0.32    0.37
  C8                   CONDUIT       41.46                     2.88    0.16    0.43
  C9                   CONDUIT       39.11                     2.07    0.28    0.51
  C10                  CONDUIT       56.31                     2.11    0.30    0.63
  C11                  CONDUIT       75.36                     9.95    0.39    0.44
  
  
  ***************************
  Flow Classification Summary
  ***************************
  ----------------------------------------------------------------------------------------------------------
                      --- Fraction of Time in Flow Class ----
                      Dry    Up Dry  Dn Dry  SubCrit SupCrit Up Crit Dn Crit Norm Ltd Inlet Ctrl
  Conduit             
  ----------------------------------------------------------------------------------------------------------
  C1                     0.68    0.00    0.00   99.32    0.00    0.00    0.00  97.76     0.00
  C2                     0.68    0.00    0.00    0.00    0.00    0.00   99.32   0.00     0.00
  C3                     0.68    0.00    0.00   18.15   81.17    0.00    0.00  12.34     0.00
  C4                     0.71    0.00    0.00   99.29    0.00    0.00    0.00  97.85     0.00
  C5                     0.91    0.19    0.00   98.91    0.00    0.00    0.00  98.91     0.00
  C6                     0.67    0.00    0.00   99.33    0.00    0.00    0.00  98.00     0.00
  C7                     0.91    0.00    0.00   10.71   88.38    0.00    0.00   0.00     0.00
  C8                     1.18    0.00    0.00   98.82    0.00    0.00    0.00  96.34     0.00
  C9                     0.68    1.46    0.00   97.86    0.00    0.00    0.00  97.86     0.00
  C10                    0.68    0.00    0.00   99.32    0.00    0.00    0.00  98.67     0.00
  C11                    0.74    0.00    0.00   10.61   88.65    0.00    0.00   0.00     0.00
  
  *************************
  Conduit Surcharge Summary
  *************************
  
  No conduits were surcharged.
  
  
  ***************************
  Link Pollutant Load Summary
  ***************************

  ----------------------------------
                                 TSS
  Link                           lbs
  ----------------------------------
  C1                          66.058
  C2                          33.856
  C3                          10.841
  C4                           0.000
  C5                           0.000
  C6                          64.401
  C7                           0.000
  C8                           0.000
  C9                           0.000
  C10                         63.920
  C11                         32.097
  
  

  Analysis begun on:  Fri Mar 27 20:15:17 2026
  Analysis ended on:  Fri Mar 27 20:15:17 2026
  Total elapsed time: < 1 sec
