
  EPA STORM WATER MANAGEMENT MODEL - VERSION 5.2 (Build 5.2.4)
  ------------------------------------------------------------

  A site surface drainage model. 
  See Site_Drainage_Model.txt for more details. 
  WARNING 09: time series interval greater than recording interval for Rain Gage RainGage

  Analysis begun on:  Thu Mar 26 09:44:12 2026
  Analysis ended on:  Thu Mar 26 09:44:12 2026
  Total elapsed time: < 1 sec