
  EPA STORM WATER MANAGEMENT MODEL - VERSION 5.3.0 (Build 5.3.0)
  ------------------------------------------------------------

  A site surface drainage model. 
  See Site_Drainage_Model.txt for more details. 

  Analysis begun on:  Mon May 11 06:57:38 2026
  Analysis ended on:  Mon May 11 06:57:38 2026
  Total elapsed time: < 1 sec