
  EPA STORM WATER MANAGEMENT MODEL - VERSION 5.2 (Build 5.2.4)
  ------------------------------------------------------------

  A site surface drainage model. 
  See Site_Drainage_Model.txt for more details. 

  Analysis begun on:  Wed Apr  1 12:59:36 2026
  Analysis ended on:  Wed Apr  1 12:59:36 2026
  Total elapsed time: < 1 sec