
  EPA STORM WATER MANAGEMENT MODEL - VERSION 5.2 (Build 5.2.4)
  ------------------------------------------------------------

  A site surface drainage model. 
  See Site_Drainage_Model.txt for more details. 
  WARNING 09: time series interval greater than recording interval for Rain Gage RainGage
  
  ****************
  Analysis Options
  ****************
  Flow Units ............... CFS
  Process Models:
    Rainfall/Runoff ........ YES
    RDII ................... NO
    Snowmelt ............... NO
    Groundwater ............ NO
    Flow Routing ........... YES
    Ponding Allowed ........ NO
    Water Quality .......... YES
  Infiltration Method ...... HORTON
  Flow Routing Method ...... DYNWAVE
  Surcharge Method ......... EXTRAN
  Starting Date ............ 01/01/1998 12:00:00
  Ending Date .............. 01/02/1998 06:00:00
  Antecedent Dry Days ...... 5.0
  Report Time Step ......... 00:05:00
  Wet Time Step ............ 00:01:00
  Dry Time Step ............ 00:05:00
  Routing Time Step ........ 5.00 sec
  Variable Time Step ....... YES
  Maximum Trials ........... 8
  Number of Threads ........ 1
  Head Tolerance ........... 0.005000 ft
  
  
  **************************        Volume         Depth
  Runoff Quantity Continuity     acre-feet        inches
  **************************     ---------       -------
  Total Precipitation ......         6.278         2.605
  Evaporation Loss .........         0.000         0.000
  Infiltration Loss ........         1.912         0.793
  Surface Runoff ...........         4.300         1.784
  Final Storage ............         0.074         0.031
  Continuity Error (%) .....        -0.129
  
  
  **************************           TSS
  Runoff Quality Continuity            lbs
  **************************    ----------
  Initial Buildup ..........       914.089
  Surface Buildup ..........         0.812
  Wet Deposition ...........         0.000
  Sweeping Removal .........         0.000
  Infiltration Loss ........         0.000
  BMP Removal ..............         0.000
  Surface Runoff ...........         0.000
  Remaining Buildup ........       914.901
  Continuity Error (%) .....         0.000
  
  
  **************************        Volume        Volume
  Flow Routing Continuity        acre-feet      10^6 gal
  **************************     ---------     ---------
  Dry Weather Inflow .......         0.000         0.000
  Wet Weather Inflow .......         4.298         1.401
  Groundwater Inflow .......         0.000         0.000
  RDII Inflow ..............         0.000         0.000
  External Inflow ..........         0.000         0.000
  External Outflow .........         4.272         1.392
  Flooding Loss ............         0.000         0.000
  Evaporation Loss .........         0.000         0.000
  Exfiltration Loss ........         0.000         0.000
  Initial Stored Volume ....         0.000         0.000
  Final Stored Volume ......         0.026         0.008
  Continuity Error (%) .....         0.010
  
  
  **************************           TSS
  Quality Routing Continuity           lbs
  **************************    ----------
  Dry Weather Inflow .......         0.000
  Wet Weather Inflow .......         0.000
  Groundwater Inflow .......         0.000
  RDII Inflow ..............         0.000
  External Inflow ..........         0.000
  External Outflow .........         0.000
  Flooding Loss ............         0.000
  Exfiltration Loss ........         0.000
  Mass Reacted .............         0.000
  Initial Stored Mass ......         0.000
  Final Stored Mass ........         0.000
  Continuity Error (%) .....         0.000
  
  
  ***************************
  Time-Step Critical Elements
  ***************************
  Link C11 (1.99%)
  
  
  ********************************
  Highest Flow Instability Indexes
  ********************************
  All links are stable.
  
  
  *********************************
  Most Frequent Nonconverging Nodes
  *********************************
  Convergence obtained at all time steps.
  
  
  *************************
  Routing Time Step Summary
  *************************
  Minimum Time Step           :     3.86 sec
  Average Time Step           :     4.98 sec
  Maximum Time Step           :     5.00 sec
  % of Time in Steady State   :     0.00
  Average Iterations per Step :     2.00
  % of Steps Not Converging   :     0.00
  Time Step Frequencies       :
      5.000 -  3.155 sec      :   100.00 %
      3.155 -  1.991 sec      :     0.00 %
      1.991 -  1.256 sec      :     0.00 %
      1.256 -  0.792 sec      :     0.00 %
      0.792 -  0.500 sec      :     0.00 %
  
  
  ***************************
  Subcatchment Runoff Summary
  ***************************
  
  ------------------------------------------------------------------------------------------------------------------------------
                            Total      Total      Total      Total     Imperv       Perv      Total       Total     Peak  Runoff
                           Precip      Runon       Evap      Infil     Runoff     Runoff     Runoff      Runoff   Runoff   Coeff
  Subcatchment                 in         in         in         in         in         in         in    10^6 gal      CFS
  ------------------------------------------------------------------------------------------------------------------------------
  S1                         2.61       0.00       0.00       0.80       1.45       0.33       1.78        0.22    15.90   0.683
  S2                         2.61       0.00       0.00       0.68       1.61       0.28       1.89        0.24    17.70   0.726
  S3                         2.61       0.00       0.00       1.12       1.01       0.46       1.47        0.15    11.33   0.565
  S4                         2.61       0.00       0.00       0.93       1.28       0.38       1.66        0.31    22.78   0.636
  S5                         2.61       0.00       0.00       0.22       2.24       0.10       2.33        0.30    21.51   0.896
  S6                         2.61       0.00       0.00       0.09       2.42       0.04       2.46        0.13     9.05   0.946
  S7                         2.61       0.00       0.00       1.87       0.00       0.74       0.74        0.05     4.54   0.283
  
  
  ****************************
  Subcatchment Washoff Summary
  ****************************
  
  ----------------------------------
                                 TSS
  Subcatchment                   lbs
  ----------------------------------
  S1                           0.000
  S2                           0.000
  S3                           0.000
  S4                           0.000
  S5                           0.000
  S6                           0.000
  S7                           0.000
  ----------------------------------
  System                       0.000
  
  
  ******************
  Node Depth Summary
  ******************
  
  ---------------------------------------------------------------------------------
                                 Average  Maximum  Maximum  Time of Max    Reported
                                   Depth    Depth      HGL   Occurrence   Max Depth
  Node                 Type         Feet     Feet     Feet  days hr:min        Feet
  ---------------------------------------------------------------------------------
  J1                   JUNCTION     0.08     0.72  4973.72     0  12:05        0.72
  J2                   JUNCTION     0.16     0.67  4969.67     0  12:05        0.66
  J3                   JUNCTION     0.12     0.91  4973.91     0  12:05        0.91
  J4                   JUNCTION     0.07     0.72  4971.72     0  12:05        0.71
  J5                   JUNCTION     0.15     1.24  4971.04     0  12:11        1.21
  J6                   JUNCTION     0.19     1.32  4970.32     0  12:05        1.28
  J7                   JUNCTION     0.09     0.86  4972.36     0  12:05        0.86
  J8                   JUNCTION     0.16     1.31  4967.81     0  12:11        1.27
  J9                   JUNCTION     0.23     1.69  4966.49     0  12:12        1.64
  J10                  JUNCTION     0.25     1.76  4965.56     0  12:11        1.73
  J11                  JUNCTION     0.31     2.02  4965.02     0  12:11        1.99
  O1                   OUTFALL      0.30     2.02  4964.02     0  12:11        1.98
  
  
  *******************
  Node Inflow Summary
  *******************
  
  -------------------------------------------------------------------------------------------------
                                  Maximum  Maximum                  Lateral       Total        Flow
                                  Lateral    Total  Time of Max      Inflow      Inflow     Balance
                                   Inflow   Inflow   Occurrence      Volume      Volume       Error
  Node                 Type           CFS      CFS  days hr:min    10^6 gal    10^6 gal     Percent
  -------------------------------------------------------------------------------------------------
  J1                   JUNCTION        16       16     0  12:05        0.22        0.22      -0.047
  J2                   JUNCTION        18       18     0  12:05       0.243       0.243       0.307
  J3                   JUNCTION        11       11     0  12:05       0.149       0.149       0.000
  J4                   JUNCTION         0       11     0  12:05           0       0.149       0.005
  J5                   JUNCTION         0       26     0  12:05           0       0.369       0.443
  J6                   JUNCTION         0       43     0  12:05           0       0.673       0.212
  J7                   JUNCTION        23       23     0  12:05       0.305       0.305      -0.033
  J8                   JUNCTION         0       40     0  12:05           0       0.672      -0.008
  J9                   JUNCTION         0       40     0  12:11           0       0.672       0.345
  J10                  JUNCTION        25       57     0  12:11        0.35        1.02       0.167
  J11                  JUNCTION       9.1       74     0  12:11       0.132        1.39       0.068
  O1                   OUTFALL          0       74     0  12:11           0        1.39       0.000
  
  
  **********************
  Node Surcharge Summary
  **********************
  
  No nodes were surcharged.
  
  
  *********************
  Node Flooding Summary
  *********************
  
  No nodes were flooded.
  
  
  ***********************
  Outfall Loading Summary
  ***********************
  
  -------------------------------------------------------------------------
                         Flow       Avg       Max       Total         Total
                         Freq      Flow      Flow      Volume           TSS
  Outfall Node           Pcnt       CFS       CFS    10^6 gal           lbs
  -------------------------------------------------------------------------
  O1                    97.75       3.1        74       1.392         0.000
  -------------------------------------------------------------------------
  System                97.75       3.1        74       1.392         0.000
  
  
  ********************
  Link Flow Summary
  ********************
  
  -----------------------------------------------------------------------------
                                 Maximum  Time of Max   Maximum    Max/    Max/
                                  |Flow|   Occurrence   |Veloc|    Full    Full
  Link                 Type          CFS  days hr:min    ft/sec    Flow   Depth
  -----------------------------------------------------------------------------
  C1                   CONDUIT        15     0  12:05      1.71    0.05    0.32
  C2                   CONDUIT        14     0  12:05      2.81    0.32    0.64
  C3                   CONDUIT        11     0  12:05      8.81    0.33    0.36
  C4                   CONDUIT        11     0  12:05      1.16    0.05    0.32
  C5                   CONDUIT        22     0  12:11      1.50    0.14    0.43
  C6                   CONDUIT        22     0  12:05      2.09    0.07    0.36
  C7                   CONDUIT        40     0  12:05     12.24    0.30    0.37
  C8                   CONDUIT        40     0  12:11      2.34    0.16    0.50
  C9                   CONDUIT        38     0  12:12      1.67    0.27    0.57
  C10                  CONDUIT        55     0  12:11      2.03    0.29    0.63
  C11                  CONDUIT        74     0  12:11     10.26    0.38    0.43
  
  
  ***************************
  Flow Classification Summary
  ***************************
  
  -------------------------------------------------------------------------------------
                      Adjusted    ---------- Fraction of Time in Flow Class ---------- 
                       /Actual         Up    Down  Sub   Sup   Up    Down  Norm  Inlet 
  Conduit               Length    Dry  Dry   Dry   Crit  Crit  Crit  Crit  Ltd   Ctrl  
  -------------------------------------------------------------------------------------
  C1                      1.00   0.01  0.00  0.00  0.99  0.00  0.00  0.00  0.96  0.00
  C2                      1.00   0.01  0.00  0.00  0.00  0.00  0.00  0.99  0.00  0.00
  C3                      1.00   0.01  0.00  0.00  0.00  0.99  0.00  0.00  0.00  0.00
  C4                      1.00   0.01  0.00  0.00  0.99  0.00  0.00  0.00  0.96  0.00
  C5                      1.00   0.02  0.00  0.00  0.98  0.00  0.00  0.00  0.98  0.00
  C6                      1.00   0.01  0.00  0.00  0.99  0.00  0.00  0.00  0.96  0.00
  C7                      1.00   0.02  0.00  0.00  0.00  0.98  0.00  0.00  0.03  0.00
  C8                      1.00   0.02  0.00  0.00  0.98  0.00  0.00  0.00  0.93  0.00
  C9                      1.00   0.01  0.02  0.00  0.96  0.00  0.00  0.00  0.96  0.00
  C10                     1.00   0.01  0.00  0.00  0.99  0.00  0.00  0.00  0.98  0.00
  C11                     1.00   0.01  0.00  0.00  0.02  0.97  0.00  0.00  0.61  0.00
  
  
  *************************
  Conduit Surcharge Summary
  *************************
  
  No conduits were surcharged.
  
  
  ***************************
  Link Pollutant Load Summary
  ***************************
  
  ----------------------------------
                                 TSS
  Link                           lbs
  ----------------------------------
  C1                           0.000
  C2                           0.000
  C3                           0.000
  C4                           0.000
  C5                           0.000
  C6                           0.000
  C7                           0.000
  C8                           0.000
  C9                           0.000
  C10                          0.000
  C11                          0.000
  

  Analysis begun on:  Wed Mar 25 21:38:33 2026
  Analysis ended on:  Wed Mar 25 21:38:33 2026
  Total elapsed time: < 1 sec